-------------------------------------------------------
          Amber 16 PMEMD                              2016
          -------------------------------------------------------

  [-O]verwriting output

File Assignments:

 Here is the input file:

TI/FEP, NpT, vdW+bonded transformation
 &cntrl
 ! please adjust namelist parameters to your needs!

 ! parameters for general MD
 imin = 0, nstlim = 500000, irest = 1, ntx = 5, dt = 0.002,
 ntt = 3, temp0 = 298.0, gamma_ln = 2.0, ig = -1,
 ntb = 2,
 ntp = 1, barostat = 2, pres0 = 1.01325, taup = 2.0,
 ntwe = 100, ntwx = 10000, ntpr = 1000, ntwr = 50000, ntave = 50000,
 ioutfm = 1, iwrap = 1, ntxo = 2,

 ! parameters for alchemical free energy simulation
 ntc = 2, ntf = 1,
 noshakemask = ':1,2',

 icfe = 1, ifsc = 1, clambda = 0.6839, scalpha = 0.5, scbeta = 12.0,
 ifmbar = 1, mbar_lambda = 0.0 0.0479 0.1150 0.2063 0.3160 0.4373 0.5626 0.6839
 mbar_states = 12, bar_intervall = 1000,   ! ntpr = bar_intervall for alchemica

 timask1=':1', timask2=':2',
scmask1=':1@H28,H29,H30',
scmask2=':2@C8,N9,C10,N11,C12,H33,H34,H35',
 crgmask = ':1@H28,H29,H30 | :2@C8,N9,C10,N11,C12,H33,H34,H35',
 /
 &ewald
 /

Note: ig = -1. Setting random seed to   614505 based on wallclock time in
      microseconds.

--------------------------------------------------------------------------------
   1.  RESOURCE   USE:
--------------------------------------------------------------------------------

 getting box info from netcdf restart file
 NATOM  =    3920 NTYPES =      16 NBONH =    3871 MBONA  =      54
 NTHETH =      66 MTHETA =      80 NPHIH =     126 MPHIA  =     132
 NHPARM =       0 NPARM  =       0 NNB   =    5560 NRES   =    1281
 NBONA  =      54 NTHETA =      80 NPHIA =     132 NUMBND =      24
 NUMANG =      39 NPTRA  =      20 NATYP =      19 NPHB   =       1
 IFBOX  =       1 NMXRS  =      44 IFCAP =       0 NEXTRA =       0
 NCOPY  =       0

     BOX TYPE: RECTILINEAR

--------------------------------------------------------------------------------
   2.  CONTROL  DATA  FOR  THE  RUN
--------------------------------------------------------------------------------

L0

General flags:
     imin    =       0, nmropt  =       0

Nature and format of input:
     ntx     =       5, irest   =       1, ntrx    =       1

Nature and format of output:
     ntxo    =       2, ntpr    =    1000, ntrx    =       1, ntwr    =   50000
     iwrap   =       1, ntwx    =   10000, ntwv    =       0, ntwe    =     100
     ioutfm  =       1, ntwprt  =       0, idecomp =       0, rbornstat=      0

Potential function:
     ntf     =       1, ntb     =       2, igb     =       0, nsnb    =      25
     ipol    =       0, gbsa    =       0, iesp    =       0
     dielc   =   1.00000, cut     =   8.00000, intdiel =   1.00000

Frozen or restrained atoms:
     ibelly  =       0, ntr     =       0

Molecular dynamics:
     nstlim  =    500000, nscm    =      1000, nrespa  =         1
     t       =   0.00000, dt      =   0.00200, vlimit  =  -1.00000

Langevin dynamics temperature regulation:
     ig      =  614505
     temp0   = 298.00000, tempi   =   0.00000, gamma_ln=   2.00000

Pressure regulation:
     ntp     =       1
     pres0   =   1.01325, comp    =  44.60000, taup    =   2.00000
     Monte-Carlo Barostat:
     mcbarint  =     100

SHAKE:
     ntc     =       2, jfastw  =       0
     tol     =   0.00001

Free energy options:
     icfe    =       1, ifsc    =       1, klambda =       1
     clambda =  0.6839, scalpha =  0.5000, scbeta  = 12.0000
     sceeorder =       2
     dynlmb =  0.0000 logdvdl =       0

FEP MBAR options:
     ifmbar  =       1,  bar_intervall =     1000
     mbar_states =      12

Ewald parameters:
     verbose =       0, ew_type =       0, nbflag  =       1, use_pme =       1
     vdwmeth =       1, eedmeth =       1, netfrc  =       1
     Box X =   32.397   Box Y =   36.128   Box Z =   33.608
     Alpha =   90.000   Beta  =   90.000   Gamma =   90.000
     NFFT1 =   36       NFFT2 =   40       NFFT3 =   36
     Cutoff=    8.000   Tol   =0.100E-04
     Ewald Coefficient =  0.34864
     Interpolation order =    4
     TI Mask 1 :1; matches     39 atoms
     TI Mask 2 :2; matches     44 atoms
     TI region 1:    3876 atoms
     TI region 2:    3881 atoms
     SC Mask 1 :1@H28,H29,H30; matches      3 atoms
     SC Mask 2 :2@C8,N9,C10,N11,C12,H33,H34,H35; matches      8 atoms
Removing charge of       0.0803 from atom      37
Removing charge of       0.0803 from atom      38
Removing charge of       0.0803 from atom      39
Removing charge of       0.4641 from atom      76
Removing charge of      -0.6711 from atom      77
Removing charge of       0.6678 from atom      78
Removing charge of      -0.6711 from atom      79
Removing charge of       0.4641 from atom      80
Removing charge of       0.0430 from atom      81
Removing charge of       0.0820 from atom      82
Removing charge of       0.0430 from atom      83
Total charge of   0.66292600 removed from      11 atoms

    MBAR - lambda values considered:
      12 total:  0.0000 0.0479 0.1150 0.2063 0.3160 0.4373 0.5626 0.6839 0.7936 0.8849 0.9520 1.0000
    Extra energies will be computed    500 times.
 Noshake mask :1,2; matches      83 atoms.

--------------------------------------------------------------------------------
   3.  ATOMIC COORDINATES AND VELOCITIES
--------------------------------------------------------------------------------

L0
 begin time read from input coords =    20.000 ps

     Molecule     1 is partially softcore
     Molecule     2 is partially softcore
 Number of triangulated 3-point waters found:     1279
   Removing shake constraints from C20   L0    1 -- H38   L0    1
   Removing shake constraints from C19   L0    1 -- H37   L0    1
   Removing shake constraints from C16   L0    1 -- H36   L0    1
   Removing shake constraints from C15   L0    1 -- H35   L0    1
   Removing shake constraints from C14   L0    1 -- H34   L0    1
   Removing shake constraints from C11   L0    1 -- H33   L0    1
   Removing shake constraints from C10   L0    1 -- H32   L0    1
   Removing shake constraints from C9    L0    1 -- H31   L0    1
   Removing shake constraints from C7    L0    1 -- H30   L0    1
   Removing shake constraints from C7    L0    1 -- H29   L0    1
   Removing shake constraints from C7    L0    1 -- H28   L0    1
   Removing shake constraints from N5    L0    1 -- H27   L0    1
   Removing shake constraints from N4    L0    1 -- H39   L0    1
   Removing shake constraints from N4    L0    1 -- H26   L0    1
   Removing shake constraints from C1    L0    1 -- H23   L0    1
   Removing shake constraints from C1    L0    1 -- H24   L0    1
   Removing shake constraints from C1    L0    1 -- H25   L0    1
   Removing shake constraints from C12   L1    2 -- H35   L1    2
   Removing shake constraints from C10   L1    2 -- H34   L1    2
   Removing shake constraints from C8    L1    2 -- H33   L1    2
   Removing shake constraints from C25   L1    2 -- H43   L1    2
   Removing shake constraints from C24   L1    2 -- H42   L1    2
   Removing shake constraints from C21   L1    2 -- H41   L1    2
   Removing shake constraints from C20   L1    2 -- H40   L1    2
   Removing shake constraints from C19   L1    2 -- H39   L1    2
   Removing shake constraints from C16   L1    2 -- H38   L1    2
   Removing shake constraints from C15   L1    2 -- H37   L1    2
   Removing shake constraints from C14   L1    2 -- H36   L1    2
   Removing shake constraints from N5    L1    2 -- H32   L1    2
   Removing shake constraints from N4    L1    2 -- H44   L1    2
   Removing shake constraints from N4    L1    2 -- H31   L1    2
   Removing shake constraints from C1    L1    2 -- H28   L1    2
   Removing shake constraints from C1    L1    2 -- H29   L1    2
   Removing shake constraints from C1    L1    2 -- H30   L1    2
 WARNING: SHAKEn bond for atoms        7       37 is partially softcore.
 WARNING: SHAKEn bond for atoms        7       38 is partially softcore.
 WARNING: SHAKEn bond for atoms        7       39 is partially softcore.
 Coordinates for common atoms will be synchronized from V0.
 Consider using noshake mask or disabling SHAKE.

 Number of shake restraints removed in TI region  1 :       17
 Number of shake restraints removed in TI region  2 :       17

     Sum of charges for TI region  1 =   0.75912799
     Assuming uniform neutralizing plasma

     Sum of charges for TI region  2 =   0.57795299
     Assuming uniform neutralizing plasma

--------------------------------------------------------------------------------
   4.  RESULTS
 NSTEP =     1000   TIME(PS) =      22.000  TEMP(K) =   284.80  PRESS =     0.0
 Etot   =    -10459.5401  EKtot   =      2200.6914  EPtot      =    -12660.2315
 BOND   =        14.8423  ANGLE   =        24.6677  DIHED      =        12.6348
 1-4 NB =         7.5605  1-4 EEL =       -66.4835  VDWAALS    =      2049.2364
 EELEC  =    -14702.6898  EHBOND  =         0.0000  RESTRAINT  =         0.0000
 EKCMT  =         0.0000  VIRIAL  =         0.0000  VOLUME     =     39701.6433
                                                    Density    =         0.9769
 DV/DL  =       -14.5781
 ------------------------------------------------------------------------------

      A V E R A G E S   O V E R   50000 S T E P S

 NSTEP =    50000   TIME(PS) =     120.000  TEMP(K) =   297.29  PRESS =     0.0
 Etot   =     -9981.9847  EKtot   =      2297.1830  EPtot      =    -12279.1677
 BOND   =        15.0785  ANGLE   =        27.9677  DIHED      =        13.9275
 1-4 NB =         7.1020  1-4 EEL =       -66.3634  VDWAALS    =      1820.6497
 EELEC  =    -14097.5299  EHBOND  =         0.0000  RESTRAINT  =         0.0000
 EKCMT  =         0.0000  VIRIAL  =         0.0000  VOLUME     =     39249.1705
                                                    Density    =         0.9883
 DV/DL  =        -8.4899
 ------------------------------------------------------------------------------

      R M S  F L U C T U A T I O N S

 NSTEP =    50000   TIME(PS) =     120.000  TEMP(K) =    10.77  PRESS =     0.0
 Etot   =       272.6498  EKtot   =        83.2028  EPtot      =       198.5281
 BOND   =         3.4289  ANGLE   =         2.8131  DIHED      =         2.9997
 1-4 NB =         0.7604  1-4 EEL =         1.7168  VDWAALS    =        98.6812
 EELEC  =       285.1957  EHBOND  =         0.0000  RESTRAINT  =         0.0000
 EKCMT  =         0.0000  VIRIAL  =         0.0000  VOLUME     =       300.5459
                                                    Density    =         0.0075
 DV/DL  =         5.5404
 ------------------------------------------------------------------------------

      A V E R A G E S   O V E R   50000 S T E P S

 NSTEP =    50000   TIME(PS) =     120.000  TEMP(K) =   297.28  PRESS =     0.0
 Etot   =     -9977.6233  EKtot   =      2301.5444  EPtot      =    -12279.1677
 BOND   =        15.0785  ANGLE   =        27.9677  DIHED      =        13.9275
 1-4 NB =         7.1020  1-4 EEL =       -66.3634  VDWAALS    =      1820.6497
 EELEC  =    -14097.5299  EHBOND  =         0.0000  RESTRAINT  =         0.0000
 EKCMT  =         0.0000  VIRIAL  =         0.0000  VOLUME     =     39249.1705
                                                    Density    =         0.9910
 DV/DL  =        -8.4899
 ------------------------------------------------------------------------------

      R M S  F L U C T U A T I O N S

 NSTEP =    50000   TIME(PS) =     120.000  TEMP(K) =    10.76  PRESS =     0.0
 Etot   =       272.7455  EKtot   =        83.2899  EPtot      =       198.5281
 BOND   =         3.4289  ANGLE   =         2.8131  DIHED      =         2.9997
 1-4 NB =         0.7604  1-4 EEL =         1.7168  VDWAALS    =        98.6812
 EELEC  =       285.1957  EHBOND  =         0.0000  RESTRAINT  =         0.0000
 EKCMT  =         0.0000  VIRIAL  =         0.0000  VOLUME     =       300.5459
                                                    Density    =         0.0076
 DV/DL  =         5.5404
 ------------------------------------------------------------------------------

      DV/DL, AVERAGES OVER   50000 STEPS

 NSTEP =    50000   TIME(PS) =     120.000  TEMP(K) =    10.76  PRESS =     0.0
 Etot   =         0.0000  EKtot   =         0.0000  EPtot      =        -8.4051
 BOND   =         0.0000  ANGLE   =         0.0000  DIHED      =         0.0000
 1-4 NB =         0.0000  1-4 EEL =         0.0000  VDWAALS    =        -0.7339
 EELEC  =       -10.7414  EHBOND  =         0.0000  RESTRAINT  =         0.0000
 EKCMT  =         0.0000  VIRIAL  =         0.0000  VOLUME     =         0.0000
                                                    Density    =         0.0000
 DV/DL  =        -8.4051
 ------------------------------------------------------------------------------

      A V E R A G E S   O V E R   50000 S T E P S

 NSTEP =   100000   TIME(PS) =     220.000  TEMP(K) =   298.61  PRESS =     0.0
 Etot   =     -9939.4120  EKtot   =      2307.4051  EPtot      =    -12246.8171
 BOND   =        15.1446  ANGLE   =        28.0501  DIHED      =        13.9659
 1-4 NB =         7.0387  1-4 EEL =       -66.5979  VDWAALS    =      1806.0620
 EELEC  =    -14050.4804  EHBOND  =         0.0000  RESTRAINT  =         0.0000
 EKCMT  =         0.0000  VIRIAL  =         0.0000  VOLUME     =     39353.7884
                                                    Density    =         0.9856
 DV/DL  =        -8.7147
 ------------------------------------------------------------------------------

      R M S  F L U C T U A T I O N S

 NSTEP =   100000   TIME(PS) =     220.000  TEMP(K) =     5.06  PRESS =     0.0
 Etot   =        76.4222  EKtot   =        39.0750  EPtot      =        61.1981
 BOND   =         3.4684  ANGLE   =         2.9142  DIHED      =         2.9132
 1-4 NB =         0.7738  1-4 EEL =         1.7376  VDWAALS    =        56.5959
 EELEC  =        96.2026  EHBOND  =         0.0000  RESTRAINT  =         0.0000
 EKCMT  =         0.0000  VIRIAL  =         0.0000  VOLUME     =       311.6936
                                                    Density    =         0.0078
 DV/DL  =         5.0950
 ------------------------------------------------------------------------------

      A V E R A G E S   O V E R   50000 S T E P S

 NSTEP =   100000   TIME(PS) =     220.000  TEMP(K) =   298.61  PRESS =     0.0
 Etot   =     -9934.9777  EKtot   =      2311.8394  EPtot      =    -12246.8171
 BOND   =        15.1446  ANGLE   =        28.0501  DIHED      =        13.9659
 1-4 NB =         7.0387  1-4 EEL =       -66.5979  VDWAALS    =      1806.0620
 EELEC  =    -14050.4804  EHBOND  =         0.0000  RESTRAINT  =         0.0000
 EKCMT  =         0.0000  VIRIAL  =         0.0000  VOLUME     =     39353.7884
                                                    Density    =         0.9883
 DV/DL  =        -8.7147
 ------------------------------------------------------------------------------

      R M S  F L U C T U A T I O N S

 NSTEP =   100000   TIME(PS) =     220.000  TEMP(K) =     5.05  PRESS =     0.0
 Etot   =        76.3898  EKtot   =        39.0973  EPtot      =        61.1981
 BOND   =         3.4684  ANGLE   =         2.9142  DIHED      =         2.9132
 1-4 NB =         0.7738  1-4 EEL =         1.7376  VDWAALS    =        56.5959
 EELEC  =        96.2026  EHBOND  =         0.0000  RESTRAINT  =         0.0000
 EKCMT  =         0.0000  VIRIAL  =         0.0000  VOLUME     =       311.6936
                                                    Density    =         0.0078
 DV/DL  =         5.0950
 ------------------------------------------------------------------------------

      DV/DL, AVERAGES OVER   50000 STEPS

 NSTEP =   100000   TIME(PS) =     220.000  TEMP(K) =     5.05  PRESS =     0.0
 Etot   =         0.0000  EKtot   =         0.0000  EPtot      =        -8.6285
 BOND   =         0.0000  ANGLE   =         0.0000  DIHED      =         0.0000
 1-4 NB =         0.0000  1-4 EEL =         0.0000  VDWAALS    =        -0.7320
 EELEC  =       -10.7415  EHBOND  =         0.0000  RESTRAINT  =         0.0000
 EKCMT  =         0.0000  VIRIAL  =         0.0000  VOLUME     =         0.0000
                                                    Density    =         0.0000
 DV/DL  =        -8.6285
 ------------------------------------------------------------------------------

      A V E R A G E S   O V E R   50000 S T E P S

 NSTEP =   500000   TIME(PS) =    1020.000  TEMP(K) =   298.03  PRESS =     0.0
 Etot   =     -9952.1523  EKtot   =      2302.9109  EPtot      =    -12255.0631
 BOND   =        15.5477  ANGLE   =        27.7148  DIHED      =        13.0465
 1-4 NB =         7.1939  1-4 EEL =       -66.3682  VDWAALS    =      1806.5682
 EELEC  =    -14058.7660  EHBOND  =         0.0000  RESTRAINT  =         0.0000
 EKCMT  =         0.0000  VIRIAL  =         0.0000  VOLUME     =     39268.1711
                                                    Density    =         0.9878
 DV/DL  =        -8.6028
 ------------------------------------------------------------------------------

      R M S  F L U C T U A T I O N S

 NSTEP =   500000   TIME(PS) =    1020.000  TEMP(K) =     4.86  PRESS =     0.0
 Etot   =        63.8611  EKtot   =        37.5608  EPtot      =        52.3465
 BOND   =         3.5953  ANGLE   =         2.7190  DIHED      =         2.6322
 1-4 NB =         0.7752  1-4 EEL =         1.7252  VDWAALS    =        55.9124
 EELEC  =        85.8346  EHBOND  =         0.0000  RESTRAINT  =         0.0000
 EKCMT  =         0.0000  VIRIAL  =         0.0000  VOLUME     =       223.2077
                                                    Density    =         0.0056
 DV/DL  =         4.9213
 ------------------------------------------------------------------------------

      A V E R A G E S   O V E R   50000 S T E P S

 NSTEP =   500000   TIME(PS) =    1020.000  TEMP(K) =   298.03  PRESS =     0.0
 Etot   =     -9947.6756  EKtot   =      2307.3876  EPtot      =    -12255.0631
 BOND   =        15.5477  ANGLE   =        27.7148  DIHED      =        13.0465
 1-4 NB =         7.1939  1-4 EEL =       -66.3682  VDWAALS    =      1806.5682
 EELEC  =    -14058.7660  EHBOND  =         0.0000  RESTRAINT  =         0.0000
 EKCMT  =         0.0000  VIRIAL  =         0.0000  VOLUME     =     39268.1711
                                                    Density    =         0.9905
 DV/DL  =        -8.6028
 ------------------------------------------------------------------------------

      R M S  F L U C T U A T I O N S

 NSTEP =   500000   TIME(PS) =    1020.000  TEMP(K) =     4.85  PRESS =     0.0
 Etot   =        63.8046  EKtot   =        37.5610  EPtot      =        52.3465
 BOND   =         3.5953  ANGLE   =         2.7190  DIHED      =         2.6322
 1-4 NB =         0.7752  1-4 EEL =         1.7252  VDWAALS    =        55.9124
 EELEC  =        85.8346  EHBOND  =         0.0000  RESTRAINT  =         0.0000
 EKCMT  =         0.0000  VIRIAL  =         0.0000  VOLUME     =       223.2077
                                                    Density    =         0.0056
 DV/DL  =         4.9213
 ------------------------------------------------------------------------------

      DV/DL, AVERAGES OVER   50000 STEPS

 NSTEP =   500000   TIME(PS) =    1020.000  TEMP(K) =     4.85  PRESS =     0.0
 Etot   =         0.0000  EKtot   =         0.0000  EPtot      =        -8.5139
 BOND   =         0.0000  ANGLE   =         0.0000  DIHED      =         0.0000
 1-4 NB =         0.0000  1-4 EEL =         0.0000  VDWAALS    =        -0.7336
 EELEC  =       -10.7414  EHBOND  =         0.0000  RESTRAINT  =         0.0000
 EKCMT  =         0.0000  VIRIAL  =         0.0000  VOLUME     =         0.0000
                                                    Density    =         0.0000
 DV/DL  =        -8.5139
 ------------------------------------------------------------------------------

      A V E R A G E S   O V E R  500000 S T E P S

 NSTEP =   500000   TIME(PS) =    1020.000  TEMP(K) =   298.36  PRESS =     0.0
 Etot   =     -9946.9593  EKtot   =      2305.4611  EPtot      =    -12252.4204
 BOND   =        15.3827  ANGLE   =        27.9408  DIHED      =        13.3909
 1-4 NB =         7.1353  1-4 EEL =       -66.4140  VDWAALS    =      1808.7364
 EELEC  =    -14058.5925  EHBOND  =         0.0000  RESTRAINT  =         0.0000
 EKCMT  =         0.0000  VIRIAL  =         0.0000  VOLUME     =     39314.7282
                                                    Density    =         0.9866
 DV/DL  =        -8.4933
 ------------------------------------------------------------------------------

      R M S  F L U C T U A T I O N S

 NSTEP =   500000   TIME(PS) =    1020.000  TEMP(K) =     5.66  PRESS =     0.0
 Etot   =       107.0430  EKtot   =        43.7571  EPtot      =        81.8681
 BOND   =         3.5105  ANGLE   =         2.8229  DIHED      =         2.7959
 1-4 NB =         0.7752  1-4 EEL =         1.7188  VDWAALS    =        61.4508
 EELEC  =       123.9953  EHBOND  =         0.0000  RESTRAINT  =         0.0000
 EKCMT  =         0.0000  VIRIAL  =         0.0000  VOLUME     =       291.5854
                                                    Density    =         0.0073
 DV/DL  =         5.3913
 ------------------------------------------------------------------------------

      A V E R A G E S   O V E R  500000 S T E P S

 NSTEP =   500000   TIME(PS) =    1020.000  TEMP(K) =   298.37  PRESS =     0.0
 Etot   =     -9942.4361  EKtot   =      2309.9842  EPtot      =    -12252.4204
 BOND   =        15.3827  ANGLE   =        27.9408  DIHED      =        13.3909
 1-4 NB =         7.1353  1-4 EEL =       -66.4140  VDWAALS    =      1808.7364
 EELEC  =    -14058.5925  EHBOND  =         0.0000  RESTRAINT  =         0.0000
 EKCMT  =         0.0000  VIRIAL  =         0.0000  VOLUME     =     39314.7282
                                                    Density    =         0.9893
 DV/DL  =        -8.4933
 ------------------------------------------------------------------------------

      R M S  F L U C T U A T I O N S

 NSTEP =   500000   TIME(PS) =    1020.000  TEMP(K) =     5.66  PRESS =     0.0
 Etot   =       107.0768  EKtot   =        43.8077  EPtot      =        81.8681
 BOND   =         3.5105  ANGLE   =         2.8229  DIHED      =         2.7959
 1-4 NB =         0.7752  1-4 EEL =         1.7188  VDWAALS    =        61.4508
 EELEC  =       123.9953  EHBOND  =         0.0000  RESTRAINT  =         0.0000
 EKCMT  =         0.0000  VIRIAL  =         0.0000  VOLUME     =       291.5854
                                                    Density    =         0.0073
 DV/DL  =         5.3913
 ------------------------------------------------------------------------------

      DV/DL, AVERAGES OVER  500000 STEPS

 NSTEP =   500000   TIME(PS) =    1020.000  TEMP(K) =     5.66  PRESS =     0.0
 Etot   =         0.0000  EKtot   =         0.0000  EPtot      =        -8.4070
 BOND   =         0.0000  ANGLE   =         0.0000  DIHED      =         0.0000
 1-4 NB =         0.0000  1-4 EEL =         0.0000  VDWAALS    =        -0.7327
 EELEC  =       -10.7415  EHBOND  =         0.0000  RESTRAINT  =         0.0000
 EKCMT  =         0.0000  VIRIAL  =         0.0000  VOLUME     =         0.0000
                                                    Density    =         0.0000
 DV/DL  =        -8.4070
 ------------------------------------------------------------------------------
