-------------------------------------------------------
          Amber 16 PMEMD                              2016
          -------------------------------------------------------

  [-O]verwriting output

File Assignments:

 Here is the input file:

TI/FEP, NpT, vdW+bonded transformation
 &cntrl
 ! please adjust namelist parameters to your needs!

 ! parameters for general MD
 imin = 0, nstlim = 500000, irest = 1, ntx = 5, dt = 0.002,
 ntt = 3, temp0 = 298.0, gamma_ln = 2.0, ig = -1,
 ntb = 2,
 ntp = 1, barostat = 2, pres0 = 1.01325, taup = 2.0,
 ntwe = 100, ntwx = 10000, ntpr = 1000, ntwr = 50000, ntave = 50000,
 ioutfm = 1, iwrap = 1, ntxo = 2,

 ! parameters for alchemical free energy simulation
 ntc = 2, ntf = 1,
 noshakemask = ':1,2',

 icfe = 1, ifsc = 1, clambda = 0.7936, scalpha = 0.5, scbeta = 12.0,
 ifmbar = 1, mbar_lambda = 0.0 0.0479 0.1150 0.2063 0.3160 0.4373 0.5626 0.6839
 mbar_states = 12, bar_intervall = 1000,   ! ntpr = bar_intervall for alchemica

 timask1=':1', timask2=':2',
scmask1=':1@H28,H29,H30',
scmask2=':2@C8,N9,C10,N11,C12,H33,H34,H35',
 crgmask = ':1@H28,H29,H30 | :2@C8,N9,C10,N11,C12,H33,H34,H35',
 /
 &ewald
 /

Note: ig = -1. Setting random seed to   182962 based on wallclock time in
      microseconds.

--------------------------------------------------------------------------------
   1.  RESOURCE   USE:
--------------------------------------------------------------------------------

 getting box info from netcdf restart file
 NATOM  =    3920 NTYPES =      16 NBONH =    3871 MBONA  =      54
 NTHETH =      66 MTHETA =      80 NPHIH =     126 MPHIA  =     132
 NHPARM =       0 NPARM  =       0 NNB   =    5560 NRES   =    1281
 NBONA  =      54 NTHETA =      80 NPHIA =     132 NUMBND =      24
 NUMANG =      39 NPTRA  =      20 NATYP =      19 NPHB   =       1
 IFBOX  =       1 NMXRS  =      44 IFCAP =       0 NEXTRA =       0
 NCOPY  =       0

     BOX TYPE: RECTILINEAR

--------------------------------------------------------------------------------
   2.  CONTROL  DATA  FOR  THE  RUN
--------------------------------------------------------------------------------

L0

General flags:
     imin    =       0, nmropt  =       0

Nature and format of input:
     ntx     =       5, irest   =       1, ntrx    =       1

Nature and format of output:
     ntxo    =       2, ntpr    =    1000, ntrx    =       1, ntwr    =   50000
     iwrap   =       1, ntwx    =   10000, ntwv    =       0, ntwe    =     100
     ioutfm  =       1, ntwprt  =       0, idecomp =       0, rbornstat=      0

Potential function:
     ntf     =       1, ntb     =       2, igb     =       0, nsnb    =      25
     ipol    =       0, gbsa    =       0, iesp    =       0
     dielc   =   1.00000, cut     =   8.00000, intdiel =   1.00000

Frozen or restrained atoms:
     ibelly  =       0, ntr     =       0

Molecular dynamics:
     nstlim  =    500000, nscm    =      1000, nrespa  =         1
     t       =   0.00000, dt      =   0.00200, vlimit  =  -1.00000

Langevin dynamics temperature regulation:
     ig      =  182962
     temp0   = 298.00000, tempi   =   0.00000, gamma_ln=   2.00000

Pressure regulation:
     ntp     =       1
     pres0   =   1.01325, comp    =  44.60000, taup    =   2.00000
     Monte-Carlo Barostat:
     mcbarint  =     100

SHAKE:
     ntc     =       2, jfastw  =       0
     tol     =   0.00001

Free energy options:
     icfe    =       1, ifsc    =       1, klambda =       1
     clambda =  0.7936, scalpha =  0.5000, scbeta  = 12.0000
     sceeorder =       2
     dynlmb =  0.0000 logdvdl =       0

FEP MBAR options:
     ifmbar  =       1,  bar_intervall =     1000
     mbar_states =      12

Ewald parameters:
     verbose =       0, ew_type =       0, nbflag  =       1, use_pme =       1
     vdwmeth =       1, eedmeth =       1, netfrc  =       1
     Box X =   32.397   Box Y =   36.128   Box Z =   33.608
     Alpha =   90.000   Beta  =   90.000   Gamma =   90.000
     NFFT1 =   36       NFFT2 =   40       NFFT3 =   36
     Cutoff=    8.000   Tol   =0.100E-04
     Ewald Coefficient =  0.34864
     Interpolation order =    4
     TI Mask 1 :1; matches     39 atoms
     TI Mask 2 :2; matches     44 atoms
     TI region 1:    3876 atoms
     TI region 2:    3881 atoms
     SC Mask 1 :1@H28,H29,H30; matches      3 atoms
     SC Mask 2 :2@C8,N9,C10,N11,C12,H33,H34,H35; matches      8 atoms
Removing charge of       0.0803 from atom      37
Removing charge of       0.0803 from atom      38
Removing charge of       0.0803 from atom      39
Removing charge of       0.4641 from atom      76
Removing charge of      -0.6711 from atom      77
Removing charge of       0.6678 from atom      78
Removing charge of      -0.6711 from atom      79
Removing charge of       0.4641 from atom      80
Removing charge of       0.0430 from atom      81
Removing charge of       0.0820 from atom      82
Removing charge of       0.0430 from atom      83
Total charge of   0.66292600 removed from      11 atoms

    MBAR - lambda values considered:
      12 total:  0.0000 0.0479 0.1150 0.2063 0.3160 0.4373 0.5626 0.6839 0.7936 0.8849 0.9520 1.0000
    Extra energies will be computed    500 times.
 Noshake mask :1,2; matches      83 atoms.

--------------------------------------------------------------------------------
   3.  ATOMIC COORDINATES AND VELOCITIES
--------------------------------------------------------------------------------

L0
 begin time read from input coords =    20.000 ps

     Molecule     1 is partially softcore
     Molecule     2 is partially softcore
 Number of triangulated 3-point waters found:     1279
   Removing shake constraints from C20   L0    1 -- H38   L0    1
   Removing shake constraints from C19   L0    1 -- H37   L0    1
   Removing shake constraints from C16   L0    1 -- H36   L0    1
   Removing shake constraints from C15   L0    1 -- H35   L0    1
   Removing shake constraints from C14   L0    1 -- H34   L0    1
   Removing shake constraints from C11   L0    1 -- H33   L0    1
   Removing shake constraints from C10   L0    1 -- H32   L0    1
   Removing shake constraints from C9    L0    1 -- H31   L0    1
   Removing shake constraints from C7    L0    1 -- H30   L0    1
   Removing shake constraints from C7    L0    1 -- H29   L0    1
   Removing shake constraints from C7    L0    1 -- H28   L0    1
   Removing shake constraints from N5    L0    1 -- H27   L0    1
   Removing shake constraints from N4    L0    1 -- H39   L0    1
   Removing shake constraints from N4    L0    1 -- H26   L0    1
   Removing shake constraints from C1    L0    1 -- H23   L0    1
   Removing shake constraints from C1    L0    1 -- H24   L0    1
   Removing shake constraints from C1    L0    1 -- H25   L0    1
   Removing shake constraints from C12   L1    2 -- H35   L1    2
   Removing shake constraints from C10   L1    2 -- H34   L1    2
   Removing shake constraints from C8    L1    2 -- H33   L1    2
   Removing shake constraints from C25   L1    2 -- H43   L1    2
   Removing shake constraints from C24   L1    2 -- H42   L1    2
   Removing shake constraints from C21   L1    2 -- H41   L1    2
   Removing shake constraints from C20   L1    2 -- H40   L1    2
   Removing shake constraints from C19   L1    2 -- H39   L1    2
   Removing shake constraints from C16   L1    2 -- H38   L1    2
   Removing shake constraints from C15   L1    2 -- H37   L1    2
   Removing shake constraints from C14   L1    2 -- H36   L1    2
   Removing shake constraints from N5    L1    2 -- H32   L1    2
   Removing shake constraints from N4    L1    2 -- H44   L1    2
   Removing shake constraints from N4    L1    2 -- H31   L1    2
   Removing shake constraints from C1    L1    2 -- H28   L1    2
   Removing shake constraints from C1    L1    2 -- H29   L1    2
   Removing shake constraints from C1    L1    2 -- H30   L1    2
 WARNING: SHAKEn bond for atoms        7       37 is partially softcore.
 WARNING: SHAKEn bond for atoms        7       38 is partially softcore.
 WARNING: SHAKEn bond for atoms        7       39 is partially softcore.
 Coordinates for common atoms will be synchronized from V0.
 Consider using noshake mask or disabling SHAKE.

 Number of shake restraints removed in TI region  1 :       17
 Number of shake restraints removed in TI region  2 :       17

     Sum of charges for TI region  1 =   0.75912799
     Assuming uniform neutralizing plasma

     Sum of charges for TI region  2 =   0.57795299
     Assuming uniform neutralizing plasma

--------------------------------------------------------------------------------
   4.  RESULTS
 NSTEP =     1000   TIME(PS) =      22.000  TEMP(K) =   285.45  PRESS =     0.0
 Etot   =    -10550.4217  EKtot   =      2205.7087  EPtot      =    -12756.1304
 BOND   =        20.0474  ANGLE   =        27.2275  DIHED      =        15.0361
 1-4 NB =         6.3554  1-4 EEL =       -68.6106  VDWAALS    =      2059.6505
 EELEC  =    -14815.8367  EHBOND  =         0.0000  RESTRAINT  =         0.0000
 EKCMT  =         0.0000  VIRIAL  =         0.0000  VOLUME     =     39071.3090
                                                    Density    =         0.9927
 DV/DL  =       -12.5166
 ------------------------------------------------------------------------------

      A V E R A G E S   O V E R   50000 S T E P S

 NSTEP =    50000   TIME(PS) =     120.000  TEMP(K) =   297.41  PRESS =     0.0
 Etot   =     -9982.7992  EKtot   =      2298.1427  EPtot      =    -12280.9419
 BOND   =        15.5592  ANGLE   =        27.9067  DIHED      =        13.0709
 1-4 NB =         7.0890  1-4 EEL =       -65.9354  VDWAALS    =      1824.5957
 EELEC  =    -14103.2279  EHBOND  =         0.0000  RESTRAINT  =         0.0000
 EKCMT  =         0.0000  VIRIAL  =         0.0000  VOLUME     =     39286.5944
                                                    Density    =         0.9873
 DV/DL  =        -9.1920
 ------------------------------------------------------------------------------

      R M S  F L U C T U A T I O N S

 NSTEP =    50000   TIME(PS) =     120.000  TEMP(K) =    10.95  PRESS =     0.0
 Etot   =       268.6516  EKtot   =        84.6166  EPtot      =       193.1831
 BOND   =         3.5697  ANGLE   =         2.8423  DIHED      =         2.8330
 1-4 NB =         0.7685  1-4 EEL =         1.8334  VDWAALS    =        97.6951
 EELEC  =       278.4391  EHBOND  =         0.0000  RESTRAINT  =         0.0000
 EKCMT  =         0.0000  VIRIAL  =         0.0000  VOLUME     =       219.8330
                                                    Density    =         0.0055
 DV/DL  =         4.9573
 ------------------------------------------------------------------------------

      A V E R A G E S   O V E R   50000 S T E P S

 NSTEP =    50000   TIME(PS) =     120.000  TEMP(K) =   297.44  PRESS =     0.0
 Etot   =     -9978.1041  EKtot   =      2302.8378  EPtot      =    -12280.9419
 BOND   =        15.5592  ANGLE   =        27.9067  DIHED      =        13.0709
 1-4 NB =         7.0890  1-4 EEL =       -65.9354  VDWAALS    =      1824.5957
 EELEC  =    -14103.2279  EHBOND  =         0.0000  RESTRAINT  =         0.0000
 EKCMT  =         0.0000  VIRIAL  =         0.0000  VOLUME     =     39286.5944
                                                    Density    =         0.9900
 DV/DL  =        -9.1920
 ------------------------------------------------------------------------------

      R M S  F L U C T U A T I O N S

 NSTEP =    50000   TIME(PS) =     120.000  TEMP(K) =    10.95  PRESS =     0.0
 Etot   =       268.8410  EKtot   =        84.8063  EPtot      =       193.1831
 BOND   =         3.5697  ANGLE   =         2.8423  DIHED      =         2.8330
 1-4 NB =         0.7685  1-4 EEL =         1.8334  VDWAALS    =        97.6951
 EELEC  =       278.4391  EHBOND  =         0.0000  RESTRAINT  =         0.0000
 EKCMT  =         0.0000  VIRIAL  =         0.0000  VOLUME     =       219.8330
                                                    Density    =         0.0055
 DV/DL  =         4.9573
 ------------------------------------------------------------------------------

      DV/DL, AVERAGES OVER   50000 STEPS

 NSTEP =    50000   TIME(PS) =     120.000  TEMP(K) =    10.95  PRESS =     0.0
 Etot   =         0.0000  EKtot   =         0.0000  EPtot      =        -9.1014
 BOND   =         0.0000  ANGLE   =         0.0000  DIHED      =         0.0000
 1-4 NB =         0.0000  1-4 EEL =         0.0000  VDWAALS    =        -0.7332
 EELEC  =       -10.7414  EHBOND  =         0.0000  RESTRAINT  =         0.0000
 EKCMT  =         0.0000  VIRIAL  =         0.0000  VOLUME     =         0.0000
                                                    Density    =         0.0000
 DV/DL  =        -9.1014
 ------------------------------------------------------------------------------

      A V E R A G E S   O V E R   50000 S T E P S

 NSTEP =   100000   TIME(PS) =     220.000  TEMP(K) =   298.31  PRESS =     0.0
 Etot   =     -9931.8101  EKtot   =      2305.0916  EPtot      =    -12236.9017
 BOND   =        15.3066  ANGLE   =        27.7599  DIHED      =        12.6691
 1-4 NB =         7.0929  1-4 EEL =       -65.9322  VDWAALS    =      1799.9774
 EELEC  =    -14033.7755  EHBOND  =         0.0000  RESTRAINT  =         0.0000
 EKCMT  =         0.0000  VIRIAL  =         0.0000  VOLUME     =     39475.1730
                                                    Density    =         0.9826
 DV/DL  =        -9.8630
 ------------------------------------------------------------------------------

      R M S  F L U C T U A T I O N S

 NSTEP =   100000   TIME(PS) =     220.000  TEMP(K) =     4.81  PRESS =     0.0
 Etot   =        74.0528  EKtot   =        37.1878  EPtot      =        60.4641
 BOND   =         3.4588  ANGLE   =         2.8337  DIHED      =         2.6888
 1-4 NB =         0.7633  1-4 EEL =         1.7664  VDWAALS    =        56.0025
 EELEC  =        95.2822  EHBOND  =         0.0000  RESTRAINT  =         0.0000
 EKCMT  =         0.0000  VIRIAL  =         0.0000  VOLUME     =       294.4095
                                                    Density    =         0.0073
 DV/DL  =         4.8173
 ------------------------------------------------------------------------------

      A V E R A G E S   O V E R   50000 S T E P S

 NSTEP =   100000   TIME(PS) =     220.000  TEMP(K) =   298.32  PRESS =     0.0
 Etot   =     -9927.2999  EKtot   =      2309.6018  EPtot      =    -12236.9017
 BOND   =        15.3066  ANGLE   =        27.7599  DIHED      =        12.6691
 1-4 NB =         7.0929  1-4 EEL =       -65.9322  VDWAALS    =      1799.9774
 EELEC  =    -14033.7755  EHBOND  =         0.0000  RESTRAINT  =         0.0000
 EKCMT  =         0.0000  VIRIAL  =         0.0000  VOLUME     =     39475.1730
                                                    Density    =         0.9853
 DV/DL  =        -9.8630
 ------------------------------------------------------------------------------

      R M S  F L U C T U A T I O N S

 NSTEP =   100000   TIME(PS) =     220.000  TEMP(K) =     4.82  PRESS =     0.0
 Etot   =        74.0869  EKtot   =        37.3134  EPtot      =        60.4641
 BOND   =         3.4588  ANGLE   =         2.8337  DIHED      =         2.6888
 1-4 NB =         0.7633  1-4 EEL =         1.7664  VDWAALS    =        56.0025
 EELEC  =        95.2822  EHBOND  =         0.0000  RESTRAINT  =         0.0000
 EKCMT  =         0.0000  VIRIAL  =         0.0000  VOLUME     =       294.4095
                                                    Density    =         0.0074
 DV/DL  =         4.8173
 ------------------------------------------------------------------------------

      DV/DL, AVERAGES OVER   50000 STEPS

 NSTEP =   100000   TIME(PS) =     220.000  TEMP(K) =     4.82  PRESS =     0.0
 Etot   =         0.0000  EKtot   =         0.0000  EPtot      =        -9.7654
 BOND   =         0.0000  ANGLE   =         0.0000  DIHED      =         0.0000
 1-4 NB =         0.0000  1-4 EEL =         0.0000  VDWAALS    =        -0.7297
 EELEC  =       -10.7416  EHBOND  =         0.0000  RESTRAINT  =         0.0000
 EKCMT  =         0.0000  VIRIAL  =         0.0000  VOLUME     =         0.0000
                                                    Density    =         0.0000
 DV/DL  =        -9.7654
 ------------------------------------------------------------------------------

      A V E R A G E S   O V E R   50000 S T E P S

 NSTEP =   500000   TIME(PS) =    1020.000  TEMP(K) =   299.17  PRESS =     0.0
 Etot   =     -9943.0310  EKtot   =      2311.7361  EPtot      =    -12254.7671
 BOND   =        15.3879  ANGLE   =        27.8738  DIHED      =        12.7507
 1-4 NB =         7.1501  1-4 EEL =       -65.8534  VDWAALS    =      1809.6667
 EELEC  =    -14061.7429  EHBOND  =         0.0000  RESTRAINT  =         0.0000
 EKCMT  =         0.0000  VIRIAL  =         0.0000  VOLUME     =     39115.1370
                                                    Density    =         0.9916
 DV/DL  =        -9.3952
 ------------------------------------------------------------------------------

      R M S  F L U C T U A T I O N S

 NSTEP =   500000   TIME(PS) =    1020.000  TEMP(K) =     4.81  PRESS =     0.0
 Etot   =        61.8070  EKtot   =        37.1490  EPtot      =        50.4013
 BOND   =         3.4866  ANGLE   =         2.8377  DIHED      =         2.8129
 1-4 NB =         0.7780  1-4 EEL =         1.7787  VDWAALS    =        54.8396
 EELEC  =        81.9160  EHBOND  =         0.0000  RESTRAINT  =         0.0000
 EKCMT  =         0.0000  VIRIAL  =         0.0000  VOLUME     =       238.5934
                                                    Density    =         0.0061
 DV/DL  =         4.7887
 ------------------------------------------------------------------------------

      A V E R A G E S   O V E R   50000 S T E P S

 NSTEP =   500000   TIME(PS) =    1020.000  TEMP(K) =   299.18  PRESS =     0.0
 Etot   =     -9938.5076  EKtot   =      2316.2595  EPtot      =    -12254.7671
 BOND   =        15.3879  ANGLE   =        27.8738  DIHED      =        12.7507
 1-4 NB =         7.1501  1-4 EEL =       -65.8534  VDWAALS    =      1809.6667
 EELEC  =    -14061.7429  EHBOND  =         0.0000  RESTRAINT  =         0.0000
 EKCMT  =         0.0000  VIRIAL  =         0.0000  VOLUME     =     39115.1370
                                                    Density    =         0.9943
 DV/DL  =        -9.3952
 ------------------------------------------------------------------------------

      R M S  F L U C T U A T I O N S

 NSTEP =   500000   TIME(PS) =    1020.000  TEMP(K) =     4.82  PRESS =     0.0
 Etot   =        61.8360  EKtot   =        37.2894  EPtot      =        50.4013
 BOND   =         3.4866  ANGLE   =         2.8377  DIHED      =         2.8129
 1-4 NB =         0.7780  1-4 EEL =         1.7787  VDWAALS    =        54.8396
 EELEC  =        81.9160  EHBOND  =         0.0000  RESTRAINT  =         0.0000
 EKCMT  =         0.0000  VIRIAL  =         0.0000  VOLUME     =       238.5934
                                                    Density    =         0.0061
 DV/DL  =         4.7887
 ------------------------------------------------------------------------------

      DV/DL, AVERAGES OVER   50000 STEPS

 NSTEP =   500000   TIME(PS) =    1020.000  TEMP(K) =     4.82  PRESS =     0.0
 Etot   =         0.0000  EKtot   =         0.0000  EPtot      =        -9.3032
 BOND   =         0.0000  ANGLE   =         0.0000  DIHED      =         0.0000
 1-4 NB =         0.0000  1-4 EEL =         0.0000  VDWAALS    =        -0.7364
 EELEC  =       -10.7413  EHBOND  =         0.0000  RESTRAINT  =         0.0000
 EKCMT  =         0.0000  VIRIAL  =         0.0000  VOLUME     =         0.0000
                                                    Density    =         0.0000
 DV/DL  =        -9.3032
 ------------------------------------------------------------------------------

      A V E R A G E S   O V E R  500000 S T E P S

 NSTEP =   500000   TIME(PS) =    1020.000  TEMP(K) =   298.60  PRESS =     0.0
 Etot   =     -9942.9390  EKtot   =      2307.3577  EPtot      =    -12250.2967
 BOND   =        15.4706  ANGLE   =        27.9049  DIHED      =        12.8646
 1-4 NB =         7.1250  1-4 EEL =       -65.8498  VDWAALS    =      1806.2840
 EELEC  =    -14054.0960  EHBOND  =         0.0000  RESTRAINT  =         0.0000
 EKCMT  =         0.0000  VIRIAL  =         0.0000  VOLUME     =     39328.3000
                                                    Density    =         0.9863
 DV/DL  =        -9.1851
 ------------------------------------------------------------------------------

      R M S  F L U C T U A T I O N S

 NSTEP =   500000   TIME(PS) =    1020.000  TEMP(K) =     5.69  PRESS =     0.0
 Etot   =       106.3421  EKtot   =        43.9414  EPtot      =        80.9256
 BOND   =         3.5431  ANGLE   =         2.8426  DIHED      =         2.7814
 1-4 NB =         0.7712  1-4 EEL =         1.7855  VDWAALS    =        60.9440
 EELEC  =       122.6796  EHBOND  =         0.0000  RESTRAINT  =         0.0000
 EKCMT  =         0.0000  VIRIAL  =         0.0000  VOLUME     =       308.4421
                                                    Density    =         0.0077
 DV/DL  =         5.0393
 ------------------------------------------------------------------------------

      A V E R A G E S   O V E R  500000 S T E P S

 NSTEP =   500000   TIME(PS) =    1020.000  TEMP(K) =   298.61  PRESS =     0.0
 Etot   =     -9938.4015  EKtot   =      2311.8952  EPtot      =    -12250.2967
 BOND   =        15.4706  ANGLE   =        27.9049  DIHED      =        12.8646
 1-4 NB =         7.1250  1-4 EEL =       -65.8498  VDWAALS    =      1806.2840
 EELEC  =    -14054.0960  EHBOND  =         0.0000  RESTRAINT  =         0.0000
 EKCMT  =         0.0000  VIRIAL  =         0.0000  VOLUME     =     39328.3000
                                                    Density    =         0.9890
 DV/DL  =        -9.1851
 ------------------------------------------------------------------------------

      R M S  F L U C T U A T I O N S

 NSTEP =   500000   TIME(PS) =    1020.000  TEMP(K) =     5.69  PRESS =     0.0
 Etot   =       106.3906  EKtot   =        44.0193  EPtot      =        80.9256
 BOND   =         3.5431  ANGLE   =         2.8426  DIHED      =         2.7814
 1-4 NB =         0.7712  1-4 EEL =         1.7855  VDWAALS    =        60.9440
 EELEC  =       122.6796  EHBOND  =         0.0000  RESTRAINT  =         0.0000
 EKCMT  =         0.0000  VIRIAL  =         0.0000  VOLUME     =       308.4421
                                                    Density    =         0.0078
 DV/DL  =         5.0393
 ------------------------------------------------------------------------------

      DV/DL, AVERAGES OVER  500000 STEPS

 NSTEP =   500000   TIME(PS) =    1020.000  TEMP(K) =     5.69  PRESS =     0.0
 Etot   =         0.0000  EKtot   =         0.0000  EPtot      =        -9.0941
 BOND   =         0.0000  ANGLE   =         0.0000  DIHED      =         0.0000
 1-4 NB =         0.0000  1-4 EEL =         0.0000  VDWAALS    =        -0.7325
 EELEC  =       -10.7415  EHBOND  =         0.0000  RESTRAINT  =         0.0000
 EKCMT  =         0.0000  VIRIAL  =         0.0000  VOLUME     =         0.0000
                                                    Density    =         0.0000
 DV/DL  =        -9.0941
 ------------------------------------------------------------------------------
