-------------------------------------------------------
          Amber 16 PMEMD                              2016
          -------------------------------------------------------

  [-O]verwriting output

File Assignments:

 Here is the input file:

TI/FEP, NpT, vdW+bonded transformation
 &cntrl
 ! please adjust namelist parameters to your needs!

 ! parameters for general MD
 imin = 0, nstlim = 500000, irest = 1, ntx = 5, dt = 0.002,
 ntt = 3, temp0 = 298.0, gamma_ln = 2.0, ig = -1,
 ntb = 2,
 ntp = 1, barostat = 2, pres0 = 1.01325, taup = 2.0,
 ntwe = 100, ntwx = 10000, ntpr = 1000, ntwr = 50000, ntave = 50000,
 ioutfm = 1, iwrap = 1, ntxo = 2,

 ! parameters for alchemical free energy simulation
 ntc = 2, ntf = 1,
 noshakemask = ':1,2',

 icfe = 1, ifsc = 1, clambda = 0.0479, scalpha = 0.5, scbeta = 12.0,
 ifmbar = 1, mbar_lambda = 0.0 0.0479 0.1150 0.2063 0.3160 0.4373 0.5626 0.6839
 mbar_states = 12, bar_intervall = 1000,   ! ntpr = bar_intervall for alchemica

 timask1=':1', timask2=':2',
scmask1=':1@H28,H29,H30',
scmask2=':2@C8,N9,C10,N11,C12,H33,H34,H35',
 crgmask = ':1@H28,H29,H30 | :2@C8,N9,C10,N11,C12,H33,H34,H35',
 /
 &ewald
 /

Note: ig = -1. Setting random seed to    81394 based on wallclock time in
      microseconds.

--------------------------------------------------------------------------------
   1.  RESOURCE   USE:
--------------------------------------------------------------------------------

 getting box info from netcdf restart file
 NATOM  =    3920 NTYPES =      16 NBONH =    3871 MBONA  =      54
 NTHETH =      66 MTHETA =      80 NPHIH =     126 MPHIA  =     132
 NHPARM =       0 NPARM  =       0 NNB   =    5560 NRES   =    1281
 NBONA  =      54 NTHETA =      80 NPHIA =     132 NUMBND =      24
 NUMANG =      39 NPTRA  =      20 NATYP =      19 NPHB   =       1
 IFBOX  =       1 NMXRS  =      44 IFCAP =       0 NEXTRA =       0
 NCOPY  =       0

     BOX TYPE: RECTILINEAR

--------------------------------------------------------------------------------
   2.  CONTROL  DATA  FOR  THE  RUN
--------------------------------------------------------------------------------

L0

General flags:
     imin    =       0, nmropt  =       0

Nature and format of input:
     ntx     =       5, irest   =       1, ntrx    =       1

Nature and format of output:
     ntxo    =       2, ntpr    =    1000, ntrx    =       1, ntwr    =   50000
     iwrap   =       1, ntwx    =   10000, ntwv    =       0, ntwe    =     100
     ioutfm  =       1, ntwprt  =       0, idecomp =       0, rbornstat=      0

Potential function:
     ntf     =       1, ntb     =       2, igb     =       0, nsnb    =      25
     ipol    =       0, gbsa    =       0, iesp    =       0
     dielc   =   1.00000, cut     =   8.00000, intdiel =   1.00000

Frozen or restrained atoms:
     ibelly  =       0, ntr     =       0

Molecular dynamics:
     nstlim  =    500000, nscm    =      1000, nrespa  =         1
     t       =   0.00000, dt      =   0.00200, vlimit  =  -1.00000

Langevin dynamics temperature regulation:
     ig      =   81394
     temp0   = 298.00000, tempi   =   0.00000, gamma_ln=   2.00000

Pressure regulation:
     ntp     =       1
     pres0   =   1.01325, comp    =  44.60000, taup    =   2.00000
     Monte-Carlo Barostat:
     mcbarint  =     100

SHAKE:
     ntc     =       2, jfastw  =       0
     tol     =   0.00001

Free energy options:
     icfe    =       1, ifsc    =       1, klambda =       1
     clambda =  0.0479, scalpha =  0.5000, scbeta  = 12.0000
     sceeorder =       2
     dynlmb =  0.0000 logdvdl =       0

FEP MBAR options:
     ifmbar  =       1,  bar_intervall =     1000
     mbar_states =      12

Ewald parameters:
     verbose =       0, ew_type =       0, nbflag  =       1, use_pme =       1
     vdwmeth =       1, eedmeth =       1, netfrc  =       1
     Box X =   32.397   Box Y =   36.128   Box Z =   33.608
     Alpha =   90.000   Beta  =   90.000   Gamma =   90.000
     NFFT1 =   36       NFFT2 =   40       NFFT3 =   36
     Cutoff=    8.000   Tol   =0.100E-04
     Ewald Coefficient =  0.34864
     Interpolation order =    4
     TI Mask 1 :1; matches     39 atoms
     TI Mask 2 :2; matches     44 atoms
     TI region 1:    3876 atoms
     TI region 2:    3881 atoms
     SC Mask 1 :1@H28,H29,H30; matches      3 atoms
     SC Mask 2 :2@C8,N9,C10,N11,C12,H33,H34,H35; matches      8 atoms
Removing charge of       0.0803 from atom      37
Removing charge of       0.0803 from atom      38
Removing charge of       0.0803 from atom      39
Removing charge of       0.4641 from atom      76
Removing charge of      -0.6711 from atom      77
Removing charge of       0.6678 from atom      78
Removing charge of      -0.6711 from atom      79
Removing charge of       0.4641 from atom      80
Removing charge of       0.0430 from atom      81
Removing charge of       0.0820 from atom      82
Removing charge of       0.0430 from atom      83
Total charge of   0.66292600 removed from      11 atoms

    MBAR - lambda values considered:
      12 total:  0.0000 0.0479 0.1150 0.2063 0.3160 0.4373 0.5626 0.6839 0.7936 0.8849 0.9520 1.0000
    Extra energies will be computed    500 times.
 Noshake mask :1,2; matches      83 atoms.

--------------------------------------------------------------------------------
   3.  ATOMIC COORDINATES AND VELOCITIES
--------------------------------------------------------------------------------

L0
 begin time read from input coords =    20.000 ps

     Molecule     1 is partially softcore
     Molecule     2 is partially softcore
 Number of triangulated 3-point waters found:     1279
   Removing shake constraints from C20   L0    1 -- H38   L0    1
   Removing shake constraints from C19   L0    1 -- H37   L0    1
   Removing shake constraints from C16   L0    1 -- H36   L0    1
   Removing shake constraints from C15   L0    1 -- H35   L0    1
   Removing shake constraints from C14   L0    1 -- H34   L0    1
   Removing shake constraints from C11   L0    1 -- H33   L0    1
   Removing shake constraints from C10   L0    1 -- H32   L0    1
   Removing shake constraints from C9    L0    1 -- H31   L0    1
   Removing shake constraints from C7    L0    1 -- H30   L0    1
   Removing shake constraints from C7    L0    1 -- H29   L0    1
   Removing shake constraints from C7    L0    1 -- H28   L0    1
   Removing shake constraints from N5    L0    1 -- H27   L0    1
   Removing shake constraints from N4    L0    1 -- H39   L0    1
   Removing shake constraints from N4    L0    1 -- H26   L0    1
   Removing shake constraints from C1    L0    1 -- H23   L0    1
   Removing shake constraints from C1    L0    1 -- H24   L0    1
   Removing shake constraints from C1    L0    1 -- H25   L0    1
   Removing shake constraints from C12   L1    2 -- H35   L1    2
   Removing shake constraints from C10   L1    2 -- H34   L1    2
   Removing shake constraints from C8    L1    2 -- H33   L1    2
   Removing shake constraints from C25   L1    2 -- H43   L1    2
   Removing shake constraints from C24   L1    2 -- H42   L1    2
   Removing shake constraints from C21   L1    2 -- H41   L1    2
   Removing shake constraints from C20   L1    2 -- H40   L1    2
   Removing shake constraints from C19   L1    2 -- H39   L1    2
   Removing shake constraints from C16   L1    2 -- H38   L1    2
   Removing shake constraints from C15   L1    2 -- H37   L1    2
   Removing shake constraints from C14   L1    2 -- H36   L1    2
   Removing shake constraints from N5    L1    2 -- H32   L1    2
   Removing shake constraints from N4    L1    2 -- H44   L1    2
   Removing shake constraints from N4    L1    2 -- H31   L1    2
   Removing shake constraints from C1    L1    2 -- H28   L1    2
   Removing shake constraints from C1    L1    2 -- H29   L1    2
   Removing shake constraints from C1    L1    2 -- H30   L1    2
 WARNING: SHAKEn bond for atoms        7       37 is partially softcore.
 WARNING: SHAKEn bond for atoms        7       38 is partially softcore.
 WARNING: SHAKEn bond for atoms        7       39 is partially softcore.
 Coordinates for common atoms will be synchronized from V0.
 Consider using noshake mask or disabling SHAKE.

 Number of shake restraints removed in TI region  1 :       17
 Number of shake restraints removed in TI region  2 :       17

     Sum of charges for TI region  1 =   0.75912799
     Assuming uniform neutralizing plasma

     Sum of charges for TI region  2 =   0.57795299
     Assuming uniform neutralizing plasma

--------------------------------------------------------------------------------
   4.  RESULTS
 NSTEP =     1000   TIME(PS) =      22.000  TEMP(K) =   287.98  PRESS =     0.0
 Etot   =    -10444.6871  EKtot   =      2225.2900  EPtot      =    -12669.9771
 BOND   =        11.5071  ANGLE   =        33.1709  DIHED      =        12.3190
 1-4 NB =         6.4823  1-4 EEL =       -67.9154  VDWAALS    =      1906.0750
 EELEC  =    -14571.6159  EHBOND  =         0.0000  RESTRAINT  =         0.0000
 EKCMT  =         0.0000  VIRIAL  =         0.0000  VOLUME     =     39670.7344
                                                    Density    =         0.9777
 DV/DL  =        -5.0461
 ------------------------------------------------------------------------------

      A V E R A G E S   O V E R   50000 S T E P S

 NSTEP =    50000   TIME(PS) =     120.000  TEMP(K) =   297.18  PRESS =     0.0
 Etot   =     -9968.5630  EKtot   =      2296.4062  EPtot      =    -12264.9692
 BOND   =        15.3090  ANGLE   =        27.9539  DIHED      =        16.3897
 1-4 NB =         7.0973  1-4 EEL =       -70.4201  VDWAALS    =      1817.2484
 EELEC  =    -14078.5474  EHBOND  =         0.0000  RESTRAINT  =         0.0000
 EKCMT  =         0.0000  VIRIAL  =         0.0000  VOLUME     =     39309.3678
                                                    Density    =         0.9868
 DV/DL  =       -10.0500
 ------------------------------------------------------------------------------

      R M S  F L U C T U A T I O N S

 NSTEP =    50000   TIME(PS) =     120.000  TEMP(K) =    11.00  PRESS =     0.0
 Etot   =       270.7914  EKtot   =        85.0179  EPtot      =       194.4052
 BOND   =         3.5655  ANGLE   =         2.8751  DIHED      =         2.9185
 1-4 NB =         0.7725  1-4 EEL =         1.6014  VDWAALS    =        94.0048
 EELEC  =       276.2101  EHBOND  =         0.0000  RESTRAINT  =         0.0000
 EKCMT  =         0.0000  VIRIAL  =         0.0000  VOLUME     =       304.3140
                                                    Density    =         0.0076
 DV/DL  =         3.9289
 ------------------------------------------------------------------------------

      A V E R A G E S   O V E R   50000 S T E P S

 NSTEP =    50000   TIME(PS) =     120.000  TEMP(K) =   297.19  PRESS =     0.0
 Etot   =     -9964.1097  EKtot   =      2300.8595  EPtot      =    -12264.9692
 BOND   =        15.3090  ANGLE   =        27.9539  DIHED      =        16.3897
 1-4 NB =         7.0973  1-4 EEL =       -70.4201  VDWAALS    =      1817.2484
 EELEC  =    -14078.5474  EHBOND  =         0.0000  RESTRAINT  =         0.0000
 EKCMT  =         0.0000  VIRIAL  =         0.0000  VOLUME     =     39309.3678
                                                    Density    =         0.9895
 DV/DL  =       -10.0500
 ------------------------------------------------------------------------------

      R M S  F L U C T U A T I O N S

 NSTEP =    50000   TIME(PS) =     120.000  TEMP(K) =    10.99  PRESS =     0.0
 Etot   =       270.8305  EKtot   =        85.0832  EPtot      =       194.4052
 BOND   =         3.5655  ANGLE   =         2.8751  DIHED      =         2.9185
 1-4 NB =         0.7725  1-4 EEL =         1.6014  VDWAALS    =        94.0048
 EELEC  =       276.2101  EHBOND  =         0.0000  RESTRAINT  =         0.0000
 EKCMT  =         0.0000  VIRIAL  =         0.0000  VOLUME     =       304.3140
                                                    Density    =         0.0076
 DV/DL  =         3.9289
 ------------------------------------------------------------------------------

      DV/DL, AVERAGES OVER   50000 STEPS

 NSTEP =    50000   TIME(PS) =     120.000  TEMP(K) =    10.99  PRESS =     0.0
 Etot   =         0.0000  EKtot   =         0.0000  EPtot      =        -9.9516
 BOND   =         0.0000  ANGLE   =         0.0000  DIHED      =         0.0000
 1-4 NB =         0.0000  1-4 EEL =         0.0000  VDWAALS    =        -0.7328
 EELEC  =       -10.7415  EHBOND  =         0.0000  RESTRAINT  =         0.0000
 EKCMT  =         0.0000  VIRIAL  =         0.0000  VOLUME     =         0.0000
                                                    Density    =         0.0000
 DV/DL  =        -9.9516
 ------------------------------------------------------------------------------

      A V E R A G E S   O V E R   50000 S T E P S

 NSTEP =   100000   TIME(PS) =     220.000  TEMP(K) =   298.27  PRESS =     0.0
 Etot   =     -9940.6857  EKtot   =      2304.7983  EPtot      =    -12245.4839
 BOND   =        15.2656  ANGLE   =        27.8087  DIHED      =        15.5265
 1-4 NB =         7.1983  1-4 EEL =       -70.2971  VDWAALS    =      1809.6698
 EELEC  =    -14050.6558  EHBOND  =         0.0000  RESTRAINT  =         0.0000
 EKCMT  =         0.0000  VIRIAL  =         0.0000  VOLUME     =     39282.9836
                                                    Density    =         0.9874
 DV/DL  =       -10.7720
 ------------------------------------------------------------------------------

      R M S  F L U C T U A T I O N S

 NSTEP =   100000   TIME(PS) =     220.000  TEMP(K) =     4.76  PRESS =     0.0
 Etot   =        65.2914  EKtot   =        36.7652  EPtot      =        53.2145
 BOND   =         3.5576  ANGLE   =         2.8599  DIHED      =         2.6993
 1-4 NB =         0.7822  1-4 EEL =         1.5933  VDWAALS    =        56.3875
 EELEC  =        87.9480  EHBOND  =         0.0000  RESTRAINT  =         0.0000
 EKCMT  =         0.0000  VIRIAL  =         0.0000  VOLUME     =       255.3095
                                                    Density    =         0.0064
 DV/DL  =         3.9736
 ------------------------------------------------------------------------------

      A V E R A G E S   O V E R   50000 S T E P S

 NSTEP =   100000   TIME(PS) =     220.000  TEMP(K) =   298.29  PRESS =     0.0
 Etot   =     -9936.0942  EKtot   =      2309.3897  EPtot      =    -12245.4839
 BOND   =        15.2656  ANGLE   =        27.8087  DIHED      =        15.5265
 1-4 NB =         7.1983  1-4 EEL =       -70.2971  VDWAALS    =      1809.6698
 EELEC  =    -14050.6558  EHBOND  =         0.0000  RESTRAINT  =         0.0000
 EKCMT  =         0.0000  VIRIAL  =         0.0000  VOLUME     =     39282.9836
                                                    Density    =         0.9901
 DV/DL  =       -10.7720
 ------------------------------------------------------------------------------

      R M S  F L U C T U A T I O N S

 NSTEP =   100000   TIME(PS) =     220.000  TEMP(K) =     4.77  PRESS =     0.0
 Etot   =        65.4070  EKtot   =        36.9115  EPtot      =        53.2145
 BOND   =         3.5576  ANGLE   =         2.8599  DIHED      =         2.6993
 1-4 NB =         0.7822  1-4 EEL =         1.5933  VDWAALS    =        56.3875
 EELEC  =        87.9480  EHBOND  =         0.0000  RESTRAINT  =         0.0000
 EKCMT  =         0.0000  VIRIAL  =         0.0000  VOLUME     =       255.3095
                                                    Density    =         0.0064
 DV/DL  =         3.9736
 ------------------------------------------------------------------------------

      DV/DL, AVERAGES OVER   50000 STEPS

 NSTEP =   100000   TIME(PS) =     220.000  TEMP(K) =     4.77  PRESS =     0.0
 Etot   =         0.0000  EKtot   =         0.0000  EPtot      =       -10.6660
 BOND   =         0.0000  ANGLE   =         0.0000  DIHED      =         0.0000
 1-4 NB =         0.0000  1-4 EEL =         0.0000  VDWAALS    =        -0.7333
 EELEC  =       -10.7414  EHBOND  =         0.0000  RESTRAINT  =         0.0000
 EKCMT  =         0.0000  VIRIAL  =         0.0000  VOLUME     =         0.0000
                                                    Density    =         0.0000
 DV/DL  =       -10.6660
 ------------------------------------------------------------------------------

      A V E R A G E S   O V E R   50000 S T E P S

 NSTEP =   500000   TIME(PS) =    1020.000  TEMP(K) =   298.36  PRESS =     0.0
 Etot   =     -9937.6397  EKtot   =      2305.4478  EPtot      =    -12243.0874
 BOND   =        14.9399  ANGLE   =        27.6863  DIHED      =        16.8241
 1-4 NB =         7.1038  1-4 EEL =       -70.2494  VDWAALS    =      1810.5754
 EELEC  =    -14049.9675  EHBOND  =         0.0000  RESTRAINT  =         0.0000
 EKCMT  =         0.0000  VIRIAL  =         0.0000  VOLUME     =     39281.3348
                                                    Density    =         0.9874
 DV/DL  =       -10.4986
 ------------------------------------------------------------------------------

      R M S  F L U C T U A T I O N S

 NSTEP =   500000   TIME(PS) =    1020.000  TEMP(K) =     4.74  PRESS =     0.0
 Etot   =        69.8564  EKtot   =        36.5951  EPtot      =        57.0706
 BOND   =         3.4762  ANGLE   =         2.7437  DIHED      =         2.8159
 1-4 NB =         0.7709  1-4 EEL =         1.5553  VDWAALS    =        54.6725
 EELEC  =        89.9472  EHBOND  =         0.0000  RESTRAINT  =         0.0000
 EKCMT  =         0.0000  VIRIAL  =         0.0000  VOLUME     =       273.2780
                                                    Density    =         0.0069
 DV/DL  =         3.9847
 ------------------------------------------------------------------------------

      A V E R A G E S   O V E R   50000 S T E P S

 NSTEP =   500000   TIME(PS) =    1020.000  TEMP(K) =   298.37  PRESS =     0.0
 Etot   =     -9933.0989  EKtot   =      2309.9885  EPtot      =    -12243.0874
 BOND   =        14.9399  ANGLE   =        27.6863  DIHED      =        16.8241
 1-4 NB =         7.1038  1-4 EEL =       -70.2494  VDWAALS    =      1810.5754
 EELEC  =    -14049.9675  EHBOND  =         0.0000  RESTRAINT  =         0.0000
 EKCMT  =         0.0000  VIRIAL  =         0.0000  VOLUME     =     39281.3348
                                                    Density    =         0.9902
 DV/DL  =       -10.4986
 ------------------------------------------------------------------------------

      R M S  F L U C T U A T I O N S

 NSTEP =   500000   TIME(PS) =    1020.000  TEMP(K) =     4.74  PRESS =     0.0
 Etot   =        70.0366  EKtot   =        36.6698  EPtot      =        57.0706
 BOND   =         3.4762  ANGLE   =         2.7437  DIHED      =         2.8159
 1-4 NB =         0.7709  1-4 EEL =         1.5553  VDWAALS    =        54.6725
 EELEC  =        89.9472  EHBOND  =         0.0000  RESTRAINT  =         0.0000
 EKCMT  =         0.0000  VIRIAL  =         0.0000  VOLUME     =       273.2780
                                                    Density    =         0.0069
 DV/DL  =         3.9847
 ------------------------------------------------------------------------------

      DV/DL, AVERAGES OVER   50000 STEPS

 NSTEP =   500000   TIME(PS) =    1020.000  TEMP(K) =     4.74  PRESS =     0.0
 Etot   =         0.0000  EKtot   =         0.0000  EPtot      =       -10.3924
 BOND   =         0.0000  ANGLE   =         0.0000  DIHED      =         0.0000
 1-4 NB =         0.0000  1-4 EEL =         0.0000  VDWAALS    =        -0.7333
 EELEC  =       -10.7414  EHBOND  =         0.0000  RESTRAINT  =         0.0000
 EKCMT  =         0.0000  VIRIAL  =         0.0000  VOLUME     =         0.0000
                                                    Density    =         0.0000
 DV/DL  =       -10.3924
 ------------------------------------------------------------------------------

      A V E R A G E S   O V E R  500000 S T E P S

 NSTEP =   500000   TIME(PS) =    1020.000  TEMP(K) =   298.43  PRESS =     0.0
 Etot   =     -9942.6690  EKtot   =      2306.0453  EPtot      =    -12248.7143
 BOND   =        15.2211  ANGLE   =        27.8457  DIHED      =        16.2248
 1-4 NB =         7.1227  1-4 EEL =       -70.3843  VDWAALS    =      1813.1029
 EELEC  =    -14057.8471  EHBOND  =         0.0000  RESTRAINT  =         0.0000
 EKCMT  =         0.0000  VIRIAL  =         0.0000  VOLUME     =     39237.7471
                                                    Density    =         0.9886
 DV/DL  =       -10.4399
 ------------------------------------------------------------------------------

      R M S  F L U C T U A T I O N S

 NSTEP =   500000   TIME(PS) =    1020.000  TEMP(K) =     5.76  PRESS =     0.0
 Etot   =       106.7456  EKtot   =        44.4861  EPtot      =        80.5461
 BOND   =         3.5062  ANGLE   =         2.8027  DIHED      =         2.8201
 1-4 NB =         0.7693  1-4 EEL =         1.5677  VDWAALS    =        60.3071
 EELEC  =       120.9581  EHBOND  =         0.0000  RESTRAINT  =         0.0000
 EKCMT  =         0.0000  VIRIAL  =         0.0000  VOLUME     =       297.1249
                                                    Density    =         0.0075
 DV/DL  =         3.8934
 ------------------------------------------------------------------------------

      A V E R A G E S   O V E R  500000 S T E P S

 NSTEP =   500000   TIME(PS) =    1020.000  TEMP(K) =   298.44  PRESS =     0.0
 Etot   =     -9938.1429  EKtot   =      2310.5714  EPtot      =    -12248.7143
 BOND   =        15.2211  ANGLE   =        27.8457  DIHED      =        16.2248
 1-4 NB =         7.1227  1-4 EEL =       -70.3843  VDWAALS    =      1813.1029
 EELEC  =    -14057.8471  EHBOND  =         0.0000  RESTRAINT  =         0.0000
 EKCMT  =         0.0000  VIRIAL  =         0.0000  VOLUME     =     39237.7471
                                                    Density    =         0.9913
 DV/DL  =       -10.4399
 ------------------------------------------------------------------------------

      R M S  F L U C T U A T I O N S

 NSTEP =   500000   TIME(PS) =    1020.000  TEMP(K) =     5.75  PRESS =     0.0
 Etot   =       106.7958  EKtot   =        44.5373  EPtot      =        80.5461
 BOND   =         3.5062  ANGLE   =         2.8027  DIHED      =         2.8201
 1-4 NB =         0.7693  1-4 EEL =         1.5677  VDWAALS    =        60.3071
 EELEC  =       120.9581  EHBOND  =         0.0000  RESTRAINT  =         0.0000
 EKCMT  =         0.0000  VIRIAL  =         0.0000  VOLUME     =       297.1249
                                                    Density    =         0.0075
 DV/DL  =         3.8934
 ------------------------------------------------------------------------------

      DV/DL, AVERAGES OVER  500000 STEPS

 NSTEP =   500000   TIME(PS) =    1020.000  TEMP(K) =     5.75  PRESS =     0.0
 Etot   =         0.0000  EKtot   =         0.0000  EPtot      =       -10.3358
 BOND   =         0.0000  ANGLE   =         0.0000  DIHED      =         0.0000
 1-4 NB =         0.0000  1-4 EEL =         0.0000  VDWAALS    =        -0.7341
 EELEC  =       -10.7414  EHBOND  =         0.0000  RESTRAINT  =         0.0000
 EKCMT  =         0.0000  VIRIAL  =         0.0000  VOLUME     =         0.0000
                                                    Density    =         0.0000
 DV/DL  =       -10.3358
 ------------------------------------------------------------------------------
