-------------------------------------------------------
          Amber 16 PMEMD                              2016
          -------------------------------------------------------

  [-O]verwriting output

File Assignments:

 Here is the input file:

TI/FEP, NpT, vdW+bonded transformation
 &cntrl
 ! please adjust namelist parameters to your needs!

 ! parameters for general MD
 imin = 0, nstlim = 500000, irest = 1, ntx = 5, dt = 0.002,
 ntt = 3, temp0 = 298.0, gamma_ln = 2.0, ig = -1,
 ntb = 2,
 ntp = 1, barostat = 2, pres0 = 1.01325, taup = 2.0,
 ntwe = 100, ntwx = 10000, ntpr = 1000, ntwr = 50000, ntave = 50000,
 ioutfm = 1, iwrap = 1, ntxo = 2,

 ! parameters for alchemical free energy simulation
 ntc = 2, ntf = 1,
 noshakemask = ':1,2',

 icfe = 1, ifsc = 1, clambda = 0.8849, scalpha = 0.5, scbeta = 12.0,
 ifmbar = 1, mbar_lambda = 0.0 0.0479 0.1150 0.2063 0.3160 0.4373 0.5626 0.6839
 mbar_states = 12, bar_intervall = 1000,   ! ntpr = bar_intervall for alchemica

 timask1=':1', timask2=':2',
scmask1=':1@H28,H29,H30',
scmask2=':2@C8,N9,C10,N11,C12,H33,H34,H35',
 crgmask = ':1@H28,H29,H30 | :2@C8,N9,C10,N11,C12,H33,H34,H35',
 /
 &ewald
 /

Note: ig = -1. Setting random seed to    20688 based on wallclock time in
      microseconds.

--------------------------------------------------------------------------------
   1.  RESOURCE   USE:
--------------------------------------------------------------------------------

 getting box info from netcdf restart file
 NATOM  =    3920 NTYPES =      16 NBONH =    3871 MBONA  =      54
 NTHETH =      66 MTHETA =      80 NPHIH =     126 MPHIA  =     132
 NHPARM =       0 NPARM  =       0 NNB   =    5560 NRES   =    1281
 NBONA  =      54 NTHETA =      80 NPHIA =     132 NUMBND =      24
 NUMANG =      39 NPTRA  =      20 NATYP =      19 NPHB   =       1
 IFBOX  =       1 NMXRS  =      44 IFCAP =       0 NEXTRA =       0
 NCOPY  =       0

     BOX TYPE: RECTILINEAR

--------------------------------------------------------------------------------
   2.  CONTROL  DATA  FOR  THE  RUN
--------------------------------------------------------------------------------

L0

General flags:
     imin    =       0, nmropt  =       0

Nature and format of input:
     ntx     =       5, irest   =       1, ntrx    =       1

Nature and format of output:
     ntxo    =       2, ntpr    =    1000, ntrx    =       1, ntwr    =   50000
     iwrap   =       1, ntwx    =   10000, ntwv    =       0, ntwe    =     100
     ioutfm  =       1, ntwprt  =       0, idecomp =       0, rbornstat=      0

Potential function:
     ntf     =       1, ntb     =       2, igb     =       0, nsnb    =      25
     ipol    =       0, gbsa    =       0, iesp    =       0
     dielc   =   1.00000, cut     =   8.00000, intdiel =   1.00000

Frozen or restrained atoms:
     ibelly  =       0, ntr     =       0

Molecular dynamics:
     nstlim  =    500000, nscm    =      1000, nrespa  =         1
     t       =   0.00000, dt      =   0.00200, vlimit  =  -1.00000

Langevin dynamics temperature regulation:
     ig      =   20688
     temp0   = 298.00000, tempi   =   0.00000, gamma_ln=   2.00000

Pressure regulation:
     ntp     =       1
     pres0   =   1.01325, comp    =  44.60000, taup    =   2.00000
     Monte-Carlo Barostat:
     mcbarint  =     100

SHAKE:
     ntc     =       2, jfastw  =       0
     tol     =   0.00001

Free energy options:
     icfe    =       1, ifsc    =       1, klambda =       1
     clambda =  0.8849, scalpha =  0.5000, scbeta  = 12.0000
     sceeorder =       2
     dynlmb =  0.0000 logdvdl =       0

FEP MBAR options:
     ifmbar  =       1,  bar_intervall =     1000
     mbar_states =      12

Ewald parameters:
     verbose =       0, ew_type =       0, nbflag  =       1, use_pme =       1
     vdwmeth =       1, eedmeth =       1, netfrc  =       1
     Box X =   32.397   Box Y =   36.128   Box Z =   33.608
     Alpha =   90.000   Beta  =   90.000   Gamma =   90.000
     NFFT1 =   36       NFFT2 =   40       NFFT3 =   36
     Cutoff=    8.000   Tol   =0.100E-04
     Ewald Coefficient =  0.34864
     Interpolation order =    4
     TI Mask 1 :1; matches     39 atoms
     TI Mask 2 :2; matches     44 atoms
     TI region 1:    3876 atoms
     TI region 2:    3881 atoms
     SC Mask 1 :1@H28,H29,H30; matches      3 atoms
     SC Mask 2 :2@C8,N9,C10,N11,C12,H33,H34,H35; matches      8 atoms
Removing charge of       0.0803 from atom      37
Removing charge of       0.0803 from atom      38
Removing charge of       0.0803 from atom      39
Removing charge of       0.4641 from atom      76
Removing charge of      -0.6711 from atom      77
Removing charge of       0.6678 from atom      78
Removing charge of      -0.6711 from atom      79
Removing charge of       0.4641 from atom      80
Removing charge of       0.0430 from atom      81
Removing charge of       0.0820 from atom      82
Removing charge of       0.0430 from atom      83
Total charge of   0.66292600 removed from      11 atoms

    MBAR - lambda values considered:
      12 total:  0.0000 0.0479 0.1150 0.2063 0.3160 0.4373 0.5626 0.6839 0.7936 0.8849 0.9520 1.0000
    Extra energies will be computed    500 times.
 Noshake mask :1,2; matches      83 atoms.

--------------------------------------------------------------------------------
   3.  ATOMIC COORDINATES AND VELOCITIES
--------------------------------------------------------------------------------

L0
 begin time read from input coords =    20.000 ps

     Molecule     1 is partially softcore
     Molecule     2 is partially softcore
 Number of triangulated 3-point waters found:     1279
   Removing shake constraints from C20   L0    1 -- H38   L0    1
   Removing shake constraints from C19   L0    1 -- H37   L0    1
   Removing shake constraints from C16   L0    1 -- H36   L0    1
   Removing shake constraints from C15   L0    1 -- H35   L0    1
   Removing shake constraints from C14   L0    1 -- H34   L0    1
   Removing shake constraints from C11   L0    1 -- H33   L0    1
   Removing shake constraints from C10   L0    1 -- H32   L0    1
   Removing shake constraints from C9    L0    1 -- H31   L0    1
   Removing shake constraints from C7    L0    1 -- H30   L0    1
   Removing shake constraints from C7    L0    1 -- H29   L0    1
   Removing shake constraints from C7    L0    1 -- H28   L0    1
   Removing shake constraints from N5    L0    1 -- H27   L0    1
   Removing shake constraints from N4    L0    1 -- H39   L0    1
   Removing shake constraints from N4    L0    1 -- H26   L0    1
   Removing shake constraints from C1    L0    1 -- H23   L0    1
   Removing shake constraints from C1    L0    1 -- H24   L0    1
   Removing shake constraints from C1    L0    1 -- H25   L0    1
   Removing shake constraints from C12   L1    2 -- H35   L1    2
   Removing shake constraints from C10   L1    2 -- H34   L1    2
   Removing shake constraints from C8    L1    2 -- H33   L1    2
   Removing shake constraints from C25   L1    2 -- H43   L1    2
   Removing shake constraints from C24   L1    2 -- H42   L1    2
   Removing shake constraints from C21   L1    2 -- H41   L1    2
   Removing shake constraints from C20   L1    2 -- H40   L1    2
   Removing shake constraints from C19   L1    2 -- H39   L1    2
   Removing shake constraints from C16   L1    2 -- H38   L1    2
   Removing shake constraints from C15   L1    2 -- H37   L1    2
   Removing shake constraints from C14   L1    2 -- H36   L1    2
   Removing shake constraints from N5    L1    2 -- H32   L1    2
   Removing shake constraints from N4    L1    2 -- H44   L1    2
   Removing shake constraints from N4    L1    2 -- H31   L1    2
   Removing shake constraints from C1    L1    2 -- H28   L1    2
   Removing shake constraints from C1    L1    2 -- H29   L1    2
   Removing shake constraints from C1    L1    2 -- H30   L1    2
 WARNING: SHAKEn bond for atoms        7       37 is partially softcore.
 WARNING: SHAKEn bond for atoms        7       38 is partially softcore.
 WARNING: SHAKEn bond for atoms        7       39 is partially softcore.
 Coordinates for common atoms will be synchronized from V0.
 Consider using noshake mask or disabling SHAKE.

 Number of shake restraints removed in TI region  1 :       17
 Number of shake restraints removed in TI region  2 :       17

     Sum of charges for TI region  1 =   0.75912799
     Assuming uniform neutralizing plasma

     Sum of charges for TI region  2 =   0.57795299
     Assuming uniform neutralizing plasma

--------------------------------------------------------------------------------
   4.  RESULTS
 NSTEP =     1000   TIME(PS) =      22.000  TEMP(K) =   295.52  PRESS =     0.0
 Etot   =    -10328.1506  EKtot   =      2283.5217  EPtot      =    -12611.6723
 BOND   =        17.4981  ANGLE   =        24.2892  DIHED      =        12.9876
 1-4 NB =         7.3190  1-4 EEL =       -66.9977  VDWAALS    =      1910.4755
 EELEC  =    -14517.2441  EHBOND  =         0.0000  RESTRAINT  =         0.0000
 EKCMT  =         0.0000  VIRIAL  =         0.0000  VOLUME     =     39631.7187
                                                    Density    =         0.9787
 DV/DL  =       -15.4144
 ------------------------------------------------------------------------------

      A V E R A G E S   O V E R   50000 S T E P S

 NSTEP =    50000   TIME(PS) =     120.000  TEMP(K) =   297.60  PRESS =     0.0
 Etot   =     -9971.7881  EKtot   =      2299.6246  EPtot      =    -12271.4127
 BOND   =        15.3982  ANGLE   =        27.9431  DIHED      =        12.5645
 1-4 NB =         7.1490  1-4 EEL =       -65.2454  VDWAALS    =      1819.2918
 EELEC  =    -14088.5139  EHBOND  =         0.0000  RESTRAINT  =         0.0000
 EKCMT  =         0.0000  VIRIAL  =         0.0000  VOLUME     =     39399.6139
                                                    Density    =         0.9845
 DV/DL  =        -9.4624
 ------------------------------------------------------------------------------

      R M S  F L U C T U A T I O N S

 NSTEP =    50000   TIME(PS) =     120.000  TEMP(K) =    10.69  PRESS =     0.0
 Etot   =       265.9339  EKtot   =        82.5771  EPtot      =       192.7505
 BOND   =         3.5704  ANGLE   =         2.8319  DIHED      =         2.7977
 1-4 NB =         0.7668  1-4 EEL =         1.8080  VDWAALS    =        95.8896
 EELEC  =       276.1110  EHBOND  =         0.0000  RESTRAINT  =         0.0000
 EKCMT  =         0.0000  VIRIAL  =         0.0000  VOLUME     =       340.2922
                                                    Density    =         0.0085
 DV/DL  =         4.8671
 ------------------------------------------------------------------------------

      A V E R A G E S   O V E R   50000 S T E P S

 NSTEP =    50000   TIME(PS) =     120.000  TEMP(K) =   297.60  PRESS =     0.0
 Etot   =     -9967.3322  EKtot   =      2304.0805  EPtot      =    -12271.4127
 BOND   =        15.3982  ANGLE   =        27.9431  DIHED      =        12.5645
 1-4 NB =         7.1490  1-4 EEL =       -65.2454  VDWAALS    =      1819.2918
 EELEC  =    -14088.5139  EHBOND  =         0.0000  RESTRAINT  =         0.0000
 EKCMT  =         0.0000  VIRIAL  =         0.0000  VOLUME     =     39399.6139
                                                    Density    =         0.9872
 DV/DL  =        -9.4624
 ------------------------------------------------------------------------------

      R M S  F L U C T U A T I O N S

 NSTEP =    50000   TIME(PS) =     120.000  TEMP(K) =    10.70  PRESS =     0.0
 Etot   =       266.2227  EKtot   =        82.8170  EPtot      =       192.7505
 BOND   =         3.5704  ANGLE   =         2.8319  DIHED      =         2.7977
 1-4 NB =         0.7668  1-4 EEL =         1.8080  VDWAALS    =        95.8896
 EELEC  =       276.1110  EHBOND  =         0.0000  RESTRAINT  =         0.0000
 EKCMT  =         0.0000  VIRIAL  =         0.0000  VOLUME     =       340.2922
                                                    Density    =         0.0085
 DV/DL  =         4.8671
 ------------------------------------------------------------------------------

      DV/DL, AVERAGES OVER   50000 STEPS

 NSTEP =    50000   TIME(PS) =     120.000  TEMP(K) =    10.70  PRESS =     0.0
 Etot   =         0.0000  EKtot   =         0.0000  EPtot      =        -9.3680
 BOND   =         0.0000  ANGLE   =         0.0000  DIHED      =         0.0000
 1-4 NB =         0.0000  1-4 EEL =         0.0000  VDWAALS    =        -0.7311
 EELEC  =       -10.7415  EHBOND  =         0.0000  RESTRAINT  =         0.0000
 EKCMT  =         0.0000  VIRIAL  =         0.0000  VOLUME     =         0.0000
                                                    Density    =         0.0000
 DV/DL  =        -9.3680
 ------------------------------------------------------------------------------

      A V E R A G E S   O V E R   50000 S T E P S

 NSTEP =   100000   TIME(PS) =     220.000  TEMP(K) =   298.54  PRESS =     0.0
 Etot   =     -9948.4902  EKtot   =      2306.8804  EPtot      =    -12255.3706
 BOND   =        15.7417  ANGLE   =        28.0751  DIHED      =        12.2037
 1-4 NB =         7.1144  1-4 EEL =       -65.2996  VDWAALS    =      1808.0197
 EELEC  =    -14061.2257  EHBOND  =         0.0000  RESTRAINT  =         0.0000
 EKCMT  =         0.0000  VIRIAL  =         0.0000  VOLUME     =     39295.8114
                                                    Density    =         0.9871
 DV/DL  =        -9.5911
 ------------------------------------------------------------------------------

      R M S  F L U C T U A T I O N S

 NSTEP =   100000   TIME(PS) =     220.000  TEMP(K) =     4.86  PRESS =     0.0
 Etot   =        70.9532  EKtot   =        37.5212  EPtot      =        57.2985
 BOND   =         3.5857  ANGLE   =         2.8366  DIHED      =         2.7646
 1-4 NB =         0.7777  1-4 EEL =         1.7708  VDWAALS    =        56.0906
 EELEC  =        92.1519  EHBOND  =         0.0000  RESTRAINT  =         0.0000
 EKCMT  =         0.0000  VIRIAL  =         0.0000  VOLUME     =       267.6827
                                                    Density    =         0.0067
 DV/DL  =         4.8752
 ------------------------------------------------------------------------------

      A V E R A G E S   O V E R   50000 S T E P S

 NSTEP =   100000   TIME(PS) =     220.000  TEMP(K) =   298.56  PRESS =     0.0
 Etot   =     -9943.9178  EKtot   =      2311.4528  EPtot      =    -12255.3706
 BOND   =        15.7417  ANGLE   =        28.0751  DIHED      =        12.2037
 1-4 NB =         7.1144  1-4 EEL =       -65.2996  VDWAALS    =      1808.0197
 EELEC  =    -14061.2257  EHBOND  =         0.0000  RESTRAINT  =         0.0000
 EKCMT  =         0.0000  VIRIAL  =         0.0000  VOLUME     =     39295.8114
                                                    Density    =         0.9898
 DV/DL  =        -9.5911
 ------------------------------------------------------------------------------

      R M S  F L U C T U A T I O N S

 NSTEP =   100000   TIME(PS) =     220.000  TEMP(K) =     4.85  PRESS =     0.0
 Etot   =        70.8430  EKtot   =        37.5111  EPtot      =        57.2985
 BOND   =         3.5857  ANGLE   =         2.8366  DIHED      =         2.7646
 1-4 NB =         0.7777  1-4 EEL =         1.7708  VDWAALS    =        56.0906
 EELEC  =        92.1519  EHBOND  =         0.0000  RESTRAINT  =         0.0000
 EKCMT  =         0.0000  VIRIAL  =         0.0000  VOLUME     =       267.6827
                                                    Density    =         0.0068
 DV/DL  =         4.8752
 ------------------------------------------------------------------------------

      DV/DL, AVERAGES OVER   50000 STEPS

 NSTEP =   100000   TIME(PS) =     220.000  TEMP(K) =     4.85  PRESS =     0.0
 Etot   =         0.0000  EKtot   =         0.0000  EPtot      =        -9.4947
 BOND   =         0.0000  ANGLE   =         0.0000  DIHED      =         0.0000
 1-4 NB =         0.0000  1-4 EEL =         0.0000  VDWAALS    =        -0.7331
 EELEC  =       -10.7414  EHBOND  =         0.0000  RESTRAINT  =         0.0000
 EKCMT  =         0.0000  VIRIAL  =         0.0000  VOLUME     =         0.0000
                                                    Density    =         0.0000
 DV/DL  =        -9.4947
 ------------------------------------------------------------------------------

      A V E R A G E S   O V E R   50000 S T E P S

 NSTEP =   500000   TIME(PS) =    1020.000  TEMP(K) =   298.62  PRESS =     0.0
 Etot   =     -9946.0891  EKtot   =      2307.5288  EPtot      =    -12253.6180
 BOND   =        15.3854  ANGLE   =        28.1047  DIHED      =        12.8075
 1-4 NB =         7.1126  1-4 EEL =       -65.2969  VDWAALS    =      1805.1670
 EELEC  =    -14056.8984  EHBOND  =         0.0000  RESTRAINT  =         0.0000
 EKCMT  =         0.0000  VIRIAL  =         0.0000  VOLUME     =     39272.1690
                                                    Density    =         0.9877
 DV/DL  =        -9.2894
 ------------------------------------------------------------------------------

      R M S  F L U C T U A T I O N S

 NSTEP =   500000   TIME(PS) =    1020.000  TEMP(K) =     4.71  PRESS =     0.0
 Etot   =        62.3050  EKtot   =        36.3969  EPtot      =        52.4874
 BOND   =         3.4678  ANGLE   =         2.8593  DIHED      =         2.7222
 1-4 NB =         0.7741  1-4 EEL =         1.7846  VDWAALS    =        52.1591
 EELEC  =        82.9351  EHBOND  =         0.0000  RESTRAINT  =         0.0000
 EKCMT  =         0.0000  VIRIAL  =         0.0000  VOLUME     =       256.5371
                                                    Density    =         0.0065
 DV/DL  =         5.0437
 ------------------------------------------------------------------------------

      A V E R A G E S   O V E R   50000 S T E P S

 NSTEP =   500000   TIME(PS) =    1020.000  TEMP(K) =   298.64  PRESS =     0.0
 Etot   =     -9941.5064  EKtot   =      2312.1116  EPtot      =    -12253.6180
 BOND   =        15.3854  ANGLE   =        28.1047  DIHED      =        12.8075
 1-4 NB =         7.1126  1-4 EEL =       -65.2969  VDWAALS    =      1805.1670
 EELEC  =    -14056.8984  EHBOND  =         0.0000  RESTRAINT  =         0.0000
 EKCMT  =         0.0000  VIRIAL  =         0.0000  VOLUME     =     39272.1690
                                                    Density    =         0.9904
 DV/DL  =        -9.2894
 ------------------------------------------------------------------------------

      R M S  F L U C T U A T I O N S

 NSTEP =   500000   TIME(PS) =    1020.000  TEMP(K) =     4.71  PRESS =     0.0
 Etot   =        62.4351  EKtot   =        36.4710  EPtot      =        52.4874
 BOND   =         3.4678  ANGLE   =         2.8593  DIHED      =         2.7222
 1-4 NB =         0.7741  1-4 EEL =         1.7846  VDWAALS    =        52.1591
 EELEC  =        82.9351  EHBOND  =         0.0000  RESTRAINT  =         0.0000
 EKCMT  =         0.0000  VIRIAL  =         0.0000  VOLUME     =       256.5371
                                                    Density    =         0.0065
 DV/DL  =         5.0437
 ------------------------------------------------------------------------------

      DV/DL, AVERAGES OVER   50000 STEPS

 NSTEP =   500000   TIME(PS) =    1020.000  TEMP(K) =     4.71  PRESS =     0.0
 Etot   =         0.0000  EKtot   =         0.0000  EPtot      =        -9.1955
 BOND   =         0.0000  ANGLE   =         0.0000  DIHED      =         0.0000
 1-4 NB =         0.0000  1-4 EEL =         0.0000  VDWAALS    =        -0.7335
 EELEC  =       -10.7414  EHBOND  =         0.0000  RESTRAINT  =         0.0000
 EKCMT  =         0.0000  VIRIAL  =         0.0000  VOLUME     =         0.0000
                                                    Density    =         0.0000
 DV/DL  =        -9.1955
 ------------------------------------------------------------------------------

      A V E R A G E S   O V E R  500000 S T E P S

 NSTEP =   500000   TIME(PS) =    1020.000  TEMP(K) =   298.60  PRESS =     0.0
 Etot   =     -9944.7483  EKtot   =      2307.3766  EPtot      =    -12252.1249
 BOND   =        15.4709  ANGLE   =        27.9916  DIHED      =        12.6435
 1-4 NB =         7.1012  1-4 EEL =       -65.3411  VDWAALS    =      1806.6844
 EELEC  =    -14056.6754  EHBOND  =         0.0000  RESTRAINT  =         0.0000
 EKCMT  =         0.0000  VIRIAL  =         0.0000  VOLUME     =     39334.2210
                                                    Density    =         0.9861
 DV/DL  =        -9.4254
 ------------------------------------------------------------------------------

      R M S  F L U C T U A T I O N S

 NSTEP =   500000   TIME(PS) =    1020.000  TEMP(K) =     5.65  PRESS =     0.0
 Etot   =       105.5920  EKtot   =        43.6307  EPtot      =        80.9089
 BOND   =         3.4923  ANGLE   =         2.8244  DIHED      =         2.8040
 1-4 NB =         0.7702  1-4 EEL =         1.8040  VDWAALS    =        60.3504
 EELEC  =       121.6967  EHBOND  =         0.0000  RESTRAINT  =         0.0000
 EKCMT  =         0.0000  VIRIAL  =         0.0000  VOLUME     =       306.5770
                                                    Density    =         0.0077
 DV/DL  =         4.8916
 ------------------------------------------------------------------------------

      A V E R A G E S   O V E R  500000 S T E P S

 NSTEP =   500000   TIME(PS) =    1020.000  TEMP(K) =   298.62  PRESS =     0.0
 Etot   =     -9940.1791  EKtot   =      2311.9458  EPtot      =    -12252.1249
 BOND   =        15.4709  ANGLE   =        27.9916  DIHED      =        12.6435
 1-4 NB =         7.1012  1-4 EEL =       -65.3411  VDWAALS    =      1806.6844
 EELEC  =    -14056.6754  EHBOND  =         0.0000  RESTRAINT  =         0.0000
 EKCMT  =         0.0000  VIRIAL  =         0.0000  VOLUME     =     39334.2210
                                                    Density    =         0.9888
 DV/DL  =        -9.4254
 ------------------------------------------------------------------------------

      R M S  F L U C T U A T I O N S

 NSTEP =   500000   TIME(PS) =    1020.000  TEMP(K) =     5.64  PRESS =     0.0
 Etot   =       105.6691  EKtot   =        43.6959  EPtot      =        80.9089
 BOND   =         3.4923  ANGLE   =         2.8244  DIHED      =         2.8040
 1-4 NB =         0.7702  1-4 EEL =         1.8040  VDWAALS    =        60.3504
 EELEC  =       121.6967  EHBOND  =         0.0000  RESTRAINT  =         0.0000
 EKCMT  =         0.0000  VIRIAL  =         0.0000  VOLUME     =       306.5770
                                                    Density    =         0.0077
 DV/DL  =         4.8916
 ------------------------------------------------------------------------------

      DV/DL, AVERAGES OVER  500000 STEPS

 NSTEP =   500000   TIME(PS) =    1020.000  TEMP(K) =     5.64  PRESS =     0.0
 Etot   =         0.0000  EKtot   =         0.0000  EPtot      =        -9.3311
 BOND   =         0.0000  ANGLE   =         0.0000  DIHED      =         0.0000
 1-4 NB =         0.0000  1-4 EEL =         0.0000  VDWAALS    =        -0.7324
 EELEC  =       -10.7415  EHBOND  =         0.0000  RESTRAINT  =         0.0000
 EKCMT  =         0.0000  VIRIAL  =         0.0000  VOLUME     =         0.0000
                                                    Density    =         0.0000
 DV/DL  =        -9.3311
 ------------------------------------------------------------------------------
