-------------------------------------------------------
          Amber 16 PMEMD                              2016
          -------------------------------------------------------

  [-O]verwriting output

File Assignments:

 Here is the input file:

TI/FEP, NpT, vdW+bonded transformation
 &cntrl
 ! please adjust namelist parameters to your needs!

 ! parameters for general MD
 imin = 0, nstlim = 500000, irest = 1, ntx = 5, dt = 0.002,
 ntt = 3, temp0 = 298.0, gamma_ln = 2.0, ig = -1,
 ntb = 2,
 ntp = 1, barostat = 2, pres0 = 1.01325, taup = 2.0,
 ntwe = 100, ntwx = 10000, ntpr = 1000, ntwr = 50000, ntave = 50000,
 ioutfm = 1, iwrap = 1, ntxo = 2,

 ! parameters for alchemical free energy simulation
 ntc = 2, ntf = 1,
 noshakemask = ':1,2',

 icfe = 1, ifsc = 1, clambda = 0.2063, scalpha = 0.5, scbeta = 12.0,
 ifmbar = 1, mbar_lambda = 0.0 0.0479 0.1150 0.2063 0.3160 0.4373 0.5626 0.6839
 mbar_states = 12, bar_intervall = 1000,   ! ntpr = bar_intervall for alchemica

 timask1=':1', timask2=':2',
scmask1=':1@H28,H29,H30',
scmask2=':2@C8,N9,C10,N11,C12,H33,H34,H35',
 crgmask = ':1@H28,H29,H30 | :2@C8,N9,C10,N11,C12,H33,H34,H35',
 /
 &ewald
 /

Note: ig = -1. Setting random seed to   954188 based on wallclock time in
      microseconds.

--------------------------------------------------------------------------------
   1.  RESOURCE   USE:
--------------------------------------------------------------------------------

 getting box info from netcdf restart file
 NATOM  =    3920 NTYPES =      16 NBONH =    3871 MBONA  =      54
 NTHETH =      66 MTHETA =      80 NPHIH =     126 MPHIA  =     132
 NHPARM =       0 NPARM  =       0 NNB   =    5560 NRES   =    1281
 NBONA  =      54 NTHETA =      80 NPHIA =     132 NUMBND =      24
 NUMANG =      39 NPTRA  =      20 NATYP =      19 NPHB   =       1
 IFBOX  =       1 NMXRS  =      44 IFCAP =       0 NEXTRA =       0
 NCOPY  =       0

     BOX TYPE: RECTILINEAR

--------------------------------------------------------------------------------
   2.  CONTROL  DATA  FOR  THE  RUN
--------------------------------------------------------------------------------

L0

General flags:
     imin    =       0, nmropt  =       0

Nature and format of input:
     ntx     =       5, irest   =       1, ntrx    =       1

Nature and format of output:
     ntxo    =       2, ntpr    =    1000, ntrx    =       1, ntwr    =   50000
     iwrap   =       1, ntwx    =   10000, ntwv    =       0, ntwe    =     100
     ioutfm  =       1, ntwprt  =       0, idecomp =       0, rbornstat=      0

Potential function:
     ntf     =       1, ntb     =       2, igb     =       0, nsnb    =      25
     ipol    =       0, gbsa    =       0, iesp    =       0
     dielc   =   1.00000, cut     =   8.00000, intdiel =   1.00000

Frozen or restrained atoms:
     ibelly  =       0, ntr     =       0

Molecular dynamics:
     nstlim  =    500000, nscm    =      1000, nrespa  =         1
     t       =   0.00000, dt      =   0.00200, vlimit  =  -1.00000

Langevin dynamics temperature regulation:
     ig      =  954188
     temp0   = 298.00000, tempi   =   0.00000, gamma_ln=   2.00000

Pressure regulation:
     ntp     =       1
     pres0   =   1.01325, comp    =  44.60000, taup    =   2.00000
     Monte-Carlo Barostat:
     mcbarint  =     100

SHAKE:
     ntc     =       2, jfastw  =       0
     tol     =   0.00001

Free energy options:
     icfe    =       1, ifsc    =       1, klambda =       1
     clambda =  0.2063, scalpha =  0.5000, scbeta  = 12.0000
     sceeorder =       2
     dynlmb =  0.0000 logdvdl =       0

FEP MBAR options:
     ifmbar  =       1,  bar_intervall =     1000
     mbar_states =      12

Ewald parameters:
     verbose =       0, ew_type =       0, nbflag  =       1, use_pme =       1
     vdwmeth =       1, eedmeth =       1, netfrc  =       1
     Box X =   32.397   Box Y =   36.128   Box Z =   33.608
     Alpha =   90.000   Beta  =   90.000   Gamma =   90.000
     NFFT1 =   36       NFFT2 =   40       NFFT3 =   36
     Cutoff=    8.000   Tol   =0.100E-04
     Ewald Coefficient =  0.34864
     Interpolation order =    4
     TI Mask 1 :1; matches     39 atoms
     TI Mask 2 :2; matches     44 atoms
     TI region 1:    3876 atoms
     TI region 2:    3881 atoms
     SC Mask 1 :1@H28,H29,H30; matches      3 atoms
     SC Mask 2 :2@C8,N9,C10,N11,C12,H33,H34,H35; matches      8 atoms
Removing charge of       0.0803 from atom      37
Removing charge of       0.0803 from atom      38
Removing charge of       0.0803 from atom      39
Removing charge of       0.4641 from atom      76
Removing charge of      -0.6711 from atom      77
Removing charge of       0.6678 from atom      78
Removing charge of      -0.6711 from atom      79
Removing charge of       0.4641 from atom      80
Removing charge of       0.0430 from atom      81
Removing charge of       0.0820 from atom      82
Removing charge of       0.0430 from atom      83
Total charge of   0.66292600 removed from      11 atoms

    MBAR - lambda values considered:
      12 total:  0.0000 0.0479 0.1150 0.2063 0.3160 0.4373 0.5626 0.6839 0.7936 0.8849 0.9520 1.0000
    Extra energies will be computed    500 times.
 Noshake mask :1,2; matches      83 atoms.

--------------------------------------------------------------------------------
   3.  ATOMIC COORDINATES AND VELOCITIES
--------------------------------------------------------------------------------

L0
 begin time read from input coords =    20.000 ps

     Molecule     1 is partially softcore
     Molecule     2 is partially softcore
 Number of triangulated 3-point waters found:     1279
   Removing shake constraints from C20   L0    1 -- H38   L0    1
   Removing shake constraints from C19   L0    1 -- H37   L0    1
   Removing shake constraints from C16   L0    1 -- H36   L0    1
   Removing shake constraints from C15   L0    1 -- H35   L0    1
   Removing shake constraints from C14   L0    1 -- H34   L0    1
   Removing shake constraints from C11   L0    1 -- H33   L0    1
   Removing shake constraints from C10   L0    1 -- H32   L0    1
   Removing shake constraints from C9    L0    1 -- H31   L0    1
   Removing shake constraints from C7    L0    1 -- H30   L0    1
   Removing shake constraints from C7    L0    1 -- H29   L0    1
   Removing shake constraints from C7    L0    1 -- H28   L0    1
   Removing shake constraints from N5    L0    1 -- H27   L0    1
   Removing shake constraints from N4    L0    1 -- H39   L0    1
   Removing shake constraints from N4    L0    1 -- H26   L0    1
   Removing shake constraints from C1    L0    1 -- H23   L0    1
   Removing shake constraints from C1    L0    1 -- H24   L0    1
   Removing shake constraints from C1    L0    1 -- H25   L0    1
   Removing shake constraints from C12   L1    2 -- H35   L1    2
   Removing shake constraints from C10   L1    2 -- H34   L1    2
   Removing shake constraints from C8    L1    2 -- H33   L1    2
   Removing shake constraints from C25   L1    2 -- H43   L1    2
   Removing shake constraints from C24   L1    2 -- H42   L1    2
   Removing shake constraints from C21   L1    2 -- H41   L1    2
   Removing shake constraints from C20   L1    2 -- H40   L1    2
   Removing shake constraints from C19   L1    2 -- H39   L1    2
   Removing shake constraints from C16   L1    2 -- H38   L1    2
   Removing shake constraints from C15   L1    2 -- H37   L1    2
   Removing shake constraints from C14   L1    2 -- H36   L1    2
   Removing shake constraints from N5    L1    2 -- H32   L1    2
   Removing shake constraints from N4    L1    2 -- H44   L1    2
   Removing shake constraints from N4    L1    2 -- H31   L1    2
   Removing shake constraints from C1    L1    2 -- H28   L1    2
   Removing shake constraints from C1    L1    2 -- H29   L1    2
   Removing shake constraints from C1    L1    2 -- H30   L1    2
 WARNING: SHAKEn bond for atoms        7       37 is partially softcore.
 WARNING: SHAKEn bond for atoms        7       38 is partially softcore.
 WARNING: SHAKEn bond for atoms        7       39 is partially softcore.
 Coordinates for common atoms will be synchronized from V0.
 Consider using noshake mask or disabling SHAKE.

 Number of shake restraints removed in TI region  1 :       17
 Number of shake restraints removed in TI region  2 :       17

     Sum of charges for TI region  1 =   0.75912799
     Assuming uniform neutralizing plasma

     Sum of charges for TI region  2 =   0.57795299
     Assuming uniform neutralizing plasma

--------------------------------------------------------------------------------
   4.  RESULTS
 NSTEP =     1000   TIME(PS) =      22.000  TEMP(K) =   282.34  PRESS =     0.0
 Etot   =    -10475.8394  EKtot   =      2181.7112  EPtot      =    -12657.5506
 BOND   =        13.9583  ANGLE   =        28.1088  DIHED      =        15.6365
 1-4 NB =         6.4684  1-4 EEL =       -69.9994  VDWAALS    =      1885.2300
 EELEC  =    -14536.9532  EHBOND  =         0.0000  RESTRAINT  =         0.0000
 EKCMT  =         0.0000  VIRIAL  =         0.0000  VOLUME     =     39508.1750
                                                    Density    =         0.9817
 DV/DL  =       -19.3351
 ------------------------------------------------------------------------------

      A V E R A G E S   O V E R   50000 S T E P S

 NSTEP =    50000   TIME(PS) =     120.000  TEMP(K) =   296.89  PRESS =     0.0
 Etot   =     -9988.1975  EKtot   =      2294.1024  EPtot      =    -12282.2999
 BOND   =        15.3178  ANGLE   =        27.7277  DIHED      =        15.2606
 1-4 NB =         7.1475  1-4 EEL =       -69.1761  VDWAALS    =      1826.6526
 EELEC  =    -14105.2300  EHBOND  =         0.0000  RESTRAINT  =         0.0000
 EKCMT  =         0.0000  VIRIAL  =         0.0000  VOLUME     =     39298.2341
                                                    Density    =         0.9870
 DV/DL  =        -5.0055
 ------------------------------------------------------------------------------

      R M S  F L U C T U A T I O N S

 NSTEP =    50000   TIME(PS) =     120.000  TEMP(K) =    10.83  PRESS =     0.0
 Etot   =       266.0513  EKtot   =        83.6618  EPtot      =       191.5011
 BOND   =         3.6119  ANGLE   =         2.8182  DIHED      =         2.6274
 1-4 NB =         0.7690  1-4 EEL =         1.5840  VDWAALS    =        98.5743
 EELEC  =       278.2684  EHBOND  =         0.0000  RESTRAINT  =         0.0000
 EKCMT  =         0.0000  VIRIAL  =         0.0000  VOLUME     =       294.2267
                                                    Density    =         0.0074
 DV/DL  =         5.4050
 ------------------------------------------------------------------------------

      A V E R A G E S   O V E R   50000 S T E P S

 NSTEP =    50000   TIME(PS) =     120.000  TEMP(K) =   296.90  PRESS =     0.0
 Etot   =     -9983.6466  EKtot   =      2298.6533  EPtot      =    -12282.2999
 BOND   =        15.3178  ANGLE   =        27.7277  DIHED      =        15.2606
 1-4 NB =         7.1475  1-4 EEL =       -69.1761  VDWAALS    =      1826.6526
 EELEC  =    -14105.2300  EHBOND  =         0.0000  RESTRAINT  =         0.0000
 EKCMT  =         0.0000  VIRIAL  =         0.0000  VOLUME     =     39298.2341
                                                    Density    =         0.9897
 DV/DL  =        -5.0055
 ------------------------------------------------------------------------------

      R M S  F L U C T U A T I O N S

 NSTEP =    50000   TIME(PS) =     120.000  TEMP(K) =    10.83  PRESS =     0.0
 Etot   =       266.2541  EKtot   =        83.8486  EPtot      =       191.5011
 BOND   =         3.6119  ANGLE   =         2.8182  DIHED      =         2.6274
 1-4 NB =         0.7690  1-4 EEL =         1.5840  VDWAALS    =        98.5743
 EELEC  =       278.2684  EHBOND  =         0.0000  RESTRAINT  =         0.0000
 EKCMT  =         0.0000  VIRIAL  =         0.0000  VOLUME     =       294.2267
                                                    Density    =         0.0074
 DV/DL  =         5.4050
 ------------------------------------------------------------------------------

      DV/DL, AVERAGES OVER   50000 STEPS

 NSTEP =    50000   TIME(PS) =     120.000  TEMP(K) =    10.83  PRESS =     0.0
 Etot   =         0.0000  EKtot   =         0.0000  EPtot      =        -4.9561
 BOND   =         0.0000  ANGLE   =         0.0000  DIHED      =         0.0000
 1-4 NB =         0.0000  1-4 EEL =         0.0000  VDWAALS    =        -0.7330
 EELEC  =       -10.7414  EHBOND  =         0.0000  RESTRAINT  =         0.0000
 EKCMT  =         0.0000  VIRIAL  =         0.0000  VOLUME     =         0.0000
                                                    Density    =         0.0000
 DV/DL  =        -4.9561
 ------------------------------------------------------------------------------

      A V E R A G E S   O V E R   50000 S T E P S

 NSTEP =   100000   TIME(PS) =     220.000  TEMP(K) =   298.96  PRESS =     0.0
 Etot   =     -9934.9625  EKtot   =      2310.0909  EPtot      =    -12245.0535
 BOND   =        15.2753  ANGLE   =        27.9867  DIHED      =        15.2827
 1-4 NB =         7.0845  1-4 EEL =       -69.2726  VDWAALS    =      1811.9469
 EELEC  =    -14053.3568  EHBOND  =         0.0000  RESTRAINT  =         0.0000
 EKCMT  =         0.0000  VIRIAL  =         0.0000  VOLUME     =     39244.8978
                                                    Density    =         0.9884
 DV/DL  =        -5.9065
 ------------------------------------------------------------------------------

      R M S  F L U C T U A T I O N S

 NSTEP =   100000   TIME(PS) =     220.000  TEMP(K) =     4.73  PRESS =     0.0
 Etot   =        63.8291  EKtot   =        36.5421  EPtot      =        54.3638
 BOND   =         3.3976  ANGLE   =         2.8195  DIHED      =         2.6579
 1-4 NB =         0.7690  1-4 EEL =         1.5896  VDWAALS    =        56.5156
 EELEC  =        88.6450  EHBOND  =         0.0000  RESTRAINT  =         0.0000
 EKCMT  =         0.0000  VIRIAL  =         0.0000  VOLUME     =       281.6213
                                                    Density    =         0.0071
 DV/DL  =         5.1495
 ------------------------------------------------------------------------------

      A V E R A G E S   O V E R   50000 S T E P S

 NSTEP =   100000   TIME(PS) =     220.000  TEMP(K) =   298.98  PRESS =     0.0
 Etot   =     -9930.3217  EKtot   =      2314.7317  EPtot      =    -12245.0535
 BOND   =        15.2753  ANGLE   =        27.9867  DIHED      =        15.2827
 1-4 NB =         7.0845  1-4 EEL =       -69.2726  VDWAALS    =      1811.9469
 EELEC  =    -14053.3568  EHBOND  =         0.0000  RESTRAINT  =         0.0000
 EKCMT  =         0.0000  VIRIAL  =         0.0000  VOLUME     =     39244.8978
                                                    Density    =         0.9911
 DV/DL  =        -5.9065
 ------------------------------------------------------------------------------

      R M S  F L U C T U A T I O N S

 NSTEP =   100000   TIME(PS) =     220.000  TEMP(K) =     4.73  PRESS =     0.0
 Etot   =        63.9156  EKtot   =        36.6246  EPtot      =        54.3638
 BOND   =         3.3976  ANGLE   =         2.8195  DIHED      =         2.6579
 1-4 NB =         0.7690  1-4 EEL =         1.5896  VDWAALS    =        56.5156
 EELEC  =        88.6450  EHBOND  =         0.0000  RESTRAINT  =         0.0000
 EKCMT  =         0.0000  VIRIAL  =         0.0000  VOLUME     =       281.6213
                                                    Density    =         0.0071
 DV/DL  =         5.1495
 ------------------------------------------------------------------------------

      DV/DL, AVERAGES OVER   50000 STEPS

 NSTEP =   100000   TIME(PS) =     220.000  TEMP(K) =     4.73  PRESS =     0.0
 Etot   =         0.0000  EKtot   =         0.0000  EPtot      =        -5.8480
 BOND   =         0.0000  ANGLE   =         0.0000  DIHED      =         0.0000
 1-4 NB =         0.0000  1-4 EEL =         0.0000  VDWAALS    =        -0.7340
 EELEC  =       -10.7414  EHBOND  =         0.0000  RESTRAINT  =         0.0000
 EKCMT  =         0.0000  VIRIAL  =         0.0000  VOLUME     =         0.0000
                                                    Density    =         0.0000
 DV/DL  =        -5.8480
 ------------------------------------------------------------------------------

      A V E R A G E S   O V E R   50000 S T E P S

 NSTEP =   500000   TIME(PS) =    1020.000  TEMP(K) =   298.42  PRESS =     0.0
 Etot   =     -9938.0332  EKtot   =      2305.9498  EPtot      =    -12243.9830
 BOND   =        15.4440  ANGLE   =        27.8980  DIHED      =        15.0988
 1-4 NB =         7.1633  1-4 EEL =       -69.4046  VDWAALS    =      1808.7973
 EELEC  =    -14048.9797  EHBOND  =         0.0000  RESTRAINT  =         0.0000
 EKCMT  =         0.0000  VIRIAL  =         0.0000  VOLUME     =     39290.6714
                                                    Density    =         0.9872
 DV/DL  =        -6.1603
 ------------------------------------------------------------------------------

      R M S  F L U C T U A T I O N S

 NSTEP =   500000   TIME(PS) =    1020.000  TEMP(K) =     4.85  PRESS =     0.0
 Etot   =        67.7085  EKtot   =        37.4646  EPtot      =        55.7377
 BOND   =         3.4699  ANGLE   =         2.7678  DIHED      =         2.7503
 1-4 NB =         0.7758  1-4 EEL =         1.5623  VDWAALS    =        54.7871
 EELEC  =        88.8659  EHBOND  =         0.0000  RESTRAINT  =         0.0000
 EKCMT  =         0.0000  VIRIAL  =         0.0000  VOLUME     =       357.1977
                                                    Density    =         0.0090
 DV/DL  =         5.2759
 ------------------------------------------------------------------------------

      A V E R A G E S   O V E R   50000 S T E P S

 NSTEP =   500000   TIME(PS) =    1020.000  TEMP(K) =   298.42  PRESS =     0.0
 Etot   =     -9933.5948  EKtot   =      2310.3882  EPtot      =    -12243.9830
 BOND   =        15.4440  ANGLE   =        27.8980  DIHED      =        15.0988
 1-4 NB =         7.1633  1-4 EEL =       -69.4046  VDWAALS    =      1808.7973
 EELEC  =    -14048.9797  EHBOND  =         0.0000  RESTRAINT  =         0.0000
 EKCMT  =         0.0000  VIRIAL  =         0.0000  VOLUME     =     39290.6714
                                                    Density    =         0.9900
 DV/DL  =        -6.1603
 ------------------------------------------------------------------------------

      R M S  F L U C T U A T I O N S

 NSTEP =   500000   TIME(PS) =    1020.000  TEMP(K) =     4.83  PRESS =     0.0
 Etot   =        67.5739  EKtot   =        37.4058  EPtot      =        55.7377
 BOND   =         3.4699  ANGLE   =         2.7678  DIHED      =         2.7503
 1-4 NB =         0.7758  1-4 EEL =         1.5623  VDWAALS    =        54.7871
 EELEC  =        88.8659  EHBOND  =         0.0000  RESTRAINT  =         0.0000
 EKCMT  =         0.0000  VIRIAL  =         0.0000  VOLUME     =       357.1977
                                                    Density    =         0.0090
 DV/DL  =         5.2759
 ------------------------------------------------------------------------------

      DV/DL, AVERAGES OVER   50000 STEPS

 NSTEP =   500000   TIME(PS) =    1020.000  TEMP(K) =     4.83  PRESS =     0.0
 Etot   =         0.0000  EKtot   =         0.0000  EPtot      =        -6.0995
 BOND   =         0.0000  ANGLE   =         0.0000  DIHED      =         0.0000
 1-4 NB =         0.0000  1-4 EEL =         0.0000  VDWAALS    =        -0.7332
 EELEC  =       -10.7414  EHBOND  =         0.0000  RESTRAINT  =         0.0000
 EKCMT  =         0.0000  VIRIAL  =         0.0000  VOLUME     =         0.0000
                                                    Density    =         0.0000
 DV/DL  =        -6.0995
 ------------------------------------------------------------------------------

      A V E R A G E S   O V E R  500000 S T E P S

 NSTEP =   500000   TIME(PS) =    1020.000  TEMP(K) =   298.51  PRESS =     0.0
 Etot   =     -9940.6809  EKtot   =      2306.6664  EPtot      =    -12247.3473
 BOND   =        15.3306  ANGLE   =        27.9197  DIHED      =        15.3773
 1-4 NB =         7.1256  1-4 EEL =       -69.4139  VDWAALS    =      1811.0647
 EELEC  =    -14054.7512  EHBOND  =         0.0000  RESTRAINT  =         0.0000
 EKCMT  =         0.0000  VIRIAL  =         0.0000  VOLUME     =     39267.8313
                                                    Density    =         0.9878
 DV/DL  =        -5.4274
 ------------------------------------------------------------------------------

      R M S  F L U C T U A T I O N S

 NSTEP =   500000   TIME(PS) =    1020.000  TEMP(K) =     5.74  PRESS =     0.0
 Etot   =       107.3634  EKtot   =        44.3771  EPtot      =        81.6503
 BOND   =         3.4981  ANGLE   =         2.8274  DIHED      =         2.7332
 1-4 NB =         0.7637  1-4 EEL =         1.5837  VDWAALS    =        61.8521
 EELEC  =       124.4056  EHBOND  =         0.0000  RESTRAINT  =         0.0000
 EKCMT  =         0.0000  VIRIAL  =         0.0000  VOLUME     =       309.6295
                                                    Density    =         0.0078
 DV/DL  =         5.2864
 ------------------------------------------------------------------------------

      A V E R A G E S   O V E R  500000 S T E P S

 NSTEP =   500000   TIME(PS) =    1020.000  TEMP(K) =   298.53  PRESS =     0.0
 Etot   =     -9936.0990  EKtot   =      2311.2483  EPtot      =    -12247.3473
 BOND   =        15.3306  ANGLE   =        27.9197  DIHED      =        15.3773
 1-4 NB =         7.1256  1-4 EEL =       -69.4139  VDWAALS    =      1811.0647
 EELEC  =    -14054.7512  EHBOND  =         0.0000  RESTRAINT  =         0.0000
 EKCMT  =         0.0000  VIRIAL  =         0.0000  VOLUME     =     39267.8313
                                                    Density    =         0.9905
 DV/DL  =        -5.4274
 ------------------------------------------------------------------------------

      R M S  F L U C T U A T I O N S

 NSTEP =   500000   TIME(PS) =    1020.000  TEMP(K) =     5.74  PRESS =     0.0
 Etot   =       107.4488  EKtot   =        44.4645  EPtot      =        81.6503
 BOND   =         3.4981  ANGLE   =         2.8274  DIHED      =         2.7332
 1-4 NB =         0.7637  1-4 EEL =         1.5837  VDWAALS    =        61.8521
 EELEC  =       124.4056  EHBOND  =         0.0000  RESTRAINT  =         0.0000
 EKCMT  =         0.0000  VIRIAL  =         0.0000  VOLUME     =       309.6295
                                                    Density    =         0.0078
 DV/DL  =         5.2864
 ------------------------------------------------------------------------------

      DV/DL, AVERAGES OVER  500000 STEPS

 NSTEP =   500000   TIME(PS) =    1020.000  TEMP(K) =     5.74  PRESS =     0.0
 Etot   =         0.0000  EKtot   =         0.0000  EPtot      =        -5.3731
 BOND   =         0.0000  ANGLE   =         0.0000  DIHED      =         0.0000
 1-4 NB =         0.0000  1-4 EEL =         0.0000  VDWAALS    =        -0.7336
 EELEC  =       -10.7414  EHBOND  =         0.0000  RESTRAINT  =         0.0000
 EKCMT  =         0.0000  VIRIAL  =         0.0000  VOLUME     =         0.0000
                                                    Density    =         0.0000
 DV/DL  =        -5.3731
 ------------------------------------------------------------------------------
