-------------------------------------------------------
          Amber 16 PMEMD                              2016
          -------------------------------------------------------

  [-O]verwriting output

File Assignments:

 Here is the input file:

TI/FEP, NpT, vdW+bonded transformation
 &cntrl
 ! please adjust namelist parameters to your needs!

 ! parameters for general MD
 imin = 0, nstlim = 500000, irest = 1, ntx = 5, dt = 0.002,
 ntt = 3, temp0 = 298.0, gamma_ln = 2.0, ig = -1,
 ntb = 2,
 ntp = 1, barostat = 2, pres0 = 1.01325, taup = 2.0,
 ntwe = 100, ntwx = 10000, ntpr = 1000, ntwr = 50000, ntave = 50000,
 ioutfm = 1, iwrap = 1, ntxo = 2,

 ! parameters for alchemical free energy simulation
 ntc = 2, ntf = 1,
 noshakemask = ':1,2',

 icfe = 1, ifsc = 1, clambda = 0.5, scalpha = 0.5, scbeta = 12.0,
 ifmbar = 1, mbar_lambda = 0.0 0.0479 0.1150 0.2063 0.3160 0.4373 0.5626 0.6839
 mbar_states = 12, bar_intervall = 1000,   ! ntpr = bar_intervall for alchemica

 timask1=':1', timask2=':2',
scmask1=':1@H28,H29,H30',
scmask2=':2@C8,N9,C10,N11,C12,H33,H34,H35',
 crgmask = ':1@H28,H29,H30 | :2@C8,N9,C10,N11,C12,H33,H34,H35',
 /
 &ewald
 /

Note: ig = -1. Setting random seed to   646539 based on wallclock time in
      microseconds.

--------------------------------------------------------------------------------
   1.  RESOURCE   USE:
--------------------------------------------------------------------------------

 getting box info from netcdf restart file
 NATOM  =    3920 NTYPES =      16 NBONH =    3871 MBONA  =      54
 NTHETH =      66 MTHETA =      80 NPHIH =     126 MPHIA  =     132
 NHPARM =       0 NPARM  =       0 NNB   =    5560 NRES   =    1281
 NBONA  =      54 NTHETA =      80 NPHIA =     132 NUMBND =      24
 NUMANG =      39 NPTRA  =      20 NATYP =      19 NPHB   =       1
 IFBOX  =       1 NMXRS  =      44 IFCAP =       0 NEXTRA =       0
 NCOPY  =       0

     BOX TYPE: RECTILINEAR

--------------------------------------------------------------------------------
   2.  CONTROL  DATA  FOR  THE  RUN
--------------------------------------------------------------------------------

L0

General flags:
     imin    =       0, nmropt  =       0

Nature and format of input:
     ntx     =       5, irest   =       1, ntrx    =       1

Nature and format of output:
     ntxo    =       2, ntpr    =    1000, ntrx    =       1, ntwr    =   50000
     iwrap   =       1, ntwx    =   10000, ntwv    =       0, ntwe    =     100
     ioutfm  =       1, ntwprt  =       0, idecomp =       0, rbornstat=      0

Potential function:
     ntf     =       1, ntb     =       2, igb     =       0, nsnb    =      25
     ipol    =       0, gbsa    =       0, iesp    =       0
     dielc   =   1.00000, cut     =   8.00000, intdiel =   1.00000

Frozen or restrained atoms:
     ibelly  =       0, ntr     =       0

Molecular dynamics:
     nstlim  =    500000, nscm    =      1000, nrespa  =         1
     t       =   0.00000, dt      =   0.00200, vlimit  =  -1.00000

Langevin dynamics temperature regulation:
     ig      =  646539
     temp0   = 298.00000, tempi   =   0.00000, gamma_ln=   2.00000

Pressure regulation:
     ntp     =       1
     pres0   =   1.01325, comp    =  44.60000, taup    =   2.00000
     Monte-Carlo Barostat:
     mcbarint  =     100

SHAKE:
     ntc     =       2, jfastw  =       0
     tol     =   0.00001

Free energy options:
     icfe    =       1, ifsc    =       1, klambda =       1
     clambda =  0.5, scalpha =  0.5000, scbeta  = 12.0000
     sceeorder =       2
     dynlmb =  0.0000 logdvdl =       0

FEP MBAR options:
     ifmbar  =       1,  bar_intervall =     1000
     mbar_states =      12

Ewald parameters:
     verbose =       0, ew_type =       0, nbflag  =       1, use_pme =       1
     vdwmeth =       1, eedmeth =       1, netfrc  =       1
     Box X =   32.397   Box Y =   36.128   Box Z =   33.608
     Alpha =   90.000   Beta  =   90.000   Gamma =   90.000
     NFFT1 =   36       NFFT2 =   40       NFFT3 =   36
     Cutoff=    8.000   Tol   =0.100E-04
     Ewald Coefficient =  0.34864
     Interpolation order =    4
     TI Mask 1 :1; matches     39 atoms
     TI Mask 2 :2; matches     44 atoms
     TI region 1:    3876 atoms
     TI region 2:    3881 atoms
     SC Mask 1 :1@H28,H29,H30; matches      3 atoms
     SC Mask 2 :2@C8,N9,C10,N11,C12,H33,H34,H35; matches      8 atoms
Removing charge of       0.0803 from atom      37
Removing charge of       0.0803 from atom      38
Removing charge of       0.0803 from atom      39
Removing charge of       0.4641 from atom      76
Removing charge of      -0.6711 from atom      77
Removing charge of       0.6678 from atom      78
Removing charge of      -0.6711 from atom      79
Removing charge of       0.4641 from atom      80
Removing charge of       0.0430 from atom      81
Removing charge of       0.0820 from atom      82
Removing charge of       0.0430 from atom      83
Total charge of   0.66292600 removed from      11 atoms

    MBAR - lambda values considered:
      12 total:  0.0000 0.0479 0.1150 0.2063 0.3160 0.4373 0.5626 0.6839 0.7936 0.8849 0.9520 1.0000
    Extra energies will be computed    500 times.
 Noshake mask :1,2; matches      83 atoms.

--------------------------------------------------------------------------------
   3.  ATOMIC COORDINATES AND VELOCITIES
--------------------------------------------------------------------------------

L0
 begin time read from input coords =    20.000 ps

     Molecule     1 is partially softcore
     Molecule     2 is partially softcore
 Number of triangulated 3-point waters found:     1279
   Removing shake constraints from C20   L0    1 -- H38   L0    1
   Removing shake constraints from C19   L0    1 -- H37   L0    1
   Removing shake constraints from C16   L0    1 -- H36   L0    1
   Removing shake constraints from C15   L0    1 -- H35   L0    1
   Removing shake constraints from C14   L0    1 -- H34   L0    1
   Removing shake constraints from C11   L0    1 -- H33   L0    1
   Removing shake constraints from C10   L0    1 -- H32   L0    1
   Removing shake constraints from C9    L0    1 -- H31   L0    1
   Removing shake constraints from C7    L0    1 -- H30   L0    1
   Removing shake constraints from C7    L0    1 -- H29   L0    1
   Removing shake constraints from C7    L0    1 -- H28   L0    1
   Removing shake constraints from N5    L0    1 -- H27   L0    1
   Removing shake constraints from N4    L0    1 -- H39   L0    1
   Removing shake constraints from N4    L0    1 -- H26   L0    1
   Removing shake constraints from C1    L0    1 -- H23   L0    1
   Removing shake constraints from C1    L0    1 -- H24   L0    1
   Removing shake constraints from C1    L0    1 -- H25   L0    1
   Removing shake constraints from C12   L1    2 -- H35   L1    2
   Removing shake constraints from C10   L1    2 -- H34   L1    2
   Removing shake constraints from C8    L1    2 -- H33   L1    2
   Removing shake constraints from C25   L1    2 -- H43   L1    2
   Removing shake constraints from C24   L1    2 -- H42   L1    2
   Removing shake constraints from C21   L1    2 -- H41   L1    2
   Removing shake constraints from C20   L1    2 -- H40   L1    2
   Removing shake constraints from C19   L1    2 -- H39   L1    2
   Removing shake constraints from C16   L1    2 -- H38   L1    2
   Removing shake constraints from C15   L1    2 -- H37   L1    2
   Removing shake constraints from C14   L1    2 -- H36   L1    2
   Removing shake constraints from N5    L1    2 -- H32   L1    2
   Removing shake constraints from N4    L1    2 -- H44   L1    2
   Removing shake constraints from N4    L1    2 -- H31   L1    2
   Removing shake constraints from C1    L1    2 -- H28   L1    2
   Removing shake constraints from C1    L1    2 -- H29   L1    2
   Removing shake constraints from C1    L1    2 -- H30   L1    2
 WARNING: SHAKEn bond for atoms        7       37 is partially softcore.
 WARNING: SHAKEn bond for atoms        7       38 is partially softcore.
 WARNING: SHAKEn bond for atoms        7       39 is partially softcore.
 Coordinates for common atoms will be synchronized from V0.
 Consider using noshake mask or disabling SHAKE.

 Number of shake restraints removed in TI region  1 :       17
 Number of shake restraints removed in TI region  2 :       17

     Sum of charges for TI region  1 =   0.75912799
     Assuming uniform neutralizing plasma

     Sum of charges for TI region  2 =   0.57795299
     Assuming uniform neutralizing plasma

--------------------------------------------------------------------------------
   4.  RESULTS
 NSTEP =     1000   TIME(PS) =      22.000  TEMP(K) =   279.62  PRESS =     0.0
 Etot   =    -10533.1527  EKtot   =      2160.6626  EPtot      =    -12693.8153
 BOND   =         9.1934  ANGLE   =        29.5490  DIHED      =        14.2542
 1-4 NB =         7.7998  1-4 EEL =       -65.8911  VDWAALS    =      1997.2395
 EELEC  =    -14685.9601  EHBOND  =         0.0000  RESTRAINT  =         0.0000
 EKCMT  =         0.0000  VIRIAL  =         0.0000  VOLUME     =     39308.0412
                                                    Density    =         0.9867
 DV/DL  =       -10.4197
 ------------------------------------------------------------------------------

      A V E R A G E S   O V E R   50000 S T E P S

 NSTEP =    50000   TIME(PS) =     120.000  TEMP(K) =   297.85  PRESS =     0.0
 Etot   =     -9963.1290  EKtot   =      2301.5218  EPtot      =    -12264.6508
 BOND   =        14.9865  ANGLE   =        27.7949  DIHED      =        14.0211
 1-4 NB =         7.1867  1-4 EEL =       -67.0279  VDWAALS    =      1813.4120
 EELEC  =    -14075.0241  EHBOND  =         0.0000  RESTRAINT  =         0.0000
 EKCMT  =         0.0000  VIRIAL  =         0.0000  VOLUME     =     39359.5839
                                                    Density    =         0.9855
 DV/DL  =        -7.5029
 ------------------------------------------------------------------------------

      R M S  F L U C T U A T I O N S

 NSTEP =    50000   TIME(PS) =     120.000  TEMP(K) =    10.79  PRESS =     0.0
 Etot   =       271.7567  EKtot   =        83.3895  EPtot      =       197.4440
 BOND   =         3.3849  ANGLE   =         2.8161  DIHED      =         2.8856
 1-4 NB =         0.7605  1-4 EEL =         1.6718  VDWAALS    =        96.7031
 EELEC  =       282.8483  EHBOND  =         0.0000  RESTRAINT  =         0.0000
 EKCMT  =         0.0000  VIRIAL  =         0.0000  VOLUME     =       306.1833
                                                    Density    =         0.0077
 DV/DL  =         5.6148
 ------------------------------------------------------------------------------

      A V E R A G E S   O V E R   50000 S T E P S

 NSTEP =    50000   TIME(PS) =     120.000  TEMP(K) =   297.87  PRESS =     0.0
 Etot   =     -9958.5096  EKtot   =      2306.1412  EPtot      =    -12264.6508
 BOND   =        14.9865  ANGLE   =        27.7949  DIHED      =        14.0211
 1-4 NB =         7.1867  1-4 EEL =       -67.0279  VDWAALS    =      1813.4120
 EELEC  =    -14075.0241  EHBOND  =         0.0000  RESTRAINT  =         0.0000
 EKCMT  =         0.0000  VIRIAL  =         0.0000  VOLUME     =     39359.5839
                                                    Density    =         0.9882
 DV/DL  =        -7.5029
 ------------------------------------------------------------------------------

      R M S  F L U C T U A T I O N S

 NSTEP =    50000   TIME(PS) =     120.000  TEMP(K) =    10.80  PRESS =     0.0
 Etot   =       271.9687  EKtot   =        83.6108  EPtot      =       197.4440
 BOND   =         3.3849  ANGLE   =         2.8161  DIHED      =         2.8856
 1-4 NB =         0.7605  1-4 EEL =         1.6718  VDWAALS    =        96.7031
 EELEC  =       282.8483  EHBOND  =         0.0000  RESTRAINT  =         0.0000
 EKCMT  =         0.0000  VIRIAL  =         0.0000  VOLUME     =       306.1833
                                                    Density    =         0.0077
 DV/DL  =         5.6148
 ------------------------------------------------------------------------------

      DV/DL, AVERAGES OVER   50000 STEPS

 NSTEP =    50000   TIME(PS) =     120.000  TEMP(K) =    10.80  PRESS =     0.0
 Etot   =         0.0000  EKtot   =         0.0000  EPtot      =        -7.4283
 BOND   =         0.0000  ANGLE   =         0.0000  DIHED      =         0.0000
 1-4 NB =         0.0000  1-4 EEL =         0.0000  VDWAALS    =        -0.7319
 EELEC  =       -10.7415  EHBOND  =         0.0000  RESTRAINT  =         0.0000
 EKCMT  =         0.0000  VIRIAL  =         0.0000  VOLUME     =         0.0000
                                                    Density    =         0.0000
 DV/DL  =        -7.4283
 ------------------------------------------------------------------------------

      A V E R A G E S   O V E R   50000 S T E P S

 NSTEP =   100000   TIME(PS) =     220.000  TEMP(K) =   298.66  PRESS =     0.0
 Etot   =     -9929.8579  EKtot   =      2307.7985  EPtot      =    -12237.6564
 BOND   =        15.3148  ANGLE   =        27.7850  DIHED      =        13.6866
 1-4 NB =         7.1697  1-4 EEL =       -67.0779  VDWAALS    =      1803.7547
 EELEC  =    -14038.2892  EHBOND  =         0.0000  RESTRAINT  =         0.0000
 EKCMT  =         0.0000  VIRIAL  =         0.0000  VOLUME     =     39380.7938
                                                    Density    =         0.9850
 DV/DL  =        -7.6472
 ------------------------------------------------------------------------------

      R M S  F L U C T U A T I O N S

 NSTEP =   100000   TIME(PS) =     220.000  TEMP(K) =     4.85  PRESS =     0.0
 Etot   =        66.2549  EKtot   =        37.4918  EPtot      =        53.9828
 BOND   =         3.4652  ANGLE   =         2.8688  DIHED      =         2.7431
 1-4 NB =         0.7682  1-4 EEL =         1.6817  VDWAALS    =        55.5792
 EELEC  =        87.9636  EHBOND  =         0.0000  RESTRAINT  =         0.0000
 EKCMT  =         0.0000  VIRIAL  =         0.0000  VOLUME     =       315.5727
                                                    Density    =         0.0079
 DV/DL  =         5.4155
 ------------------------------------------------------------------------------

      A V E R A G E S   O V E R   50000 S T E P S

 NSTEP =   100000   TIME(PS) =     220.000  TEMP(K) =   298.67  PRESS =     0.0
 Etot   =     -9925.3551  EKtot   =      2312.3013  EPtot      =    -12237.6564
 BOND   =        15.3148  ANGLE   =        27.7850  DIHED      =        13.6866
 1-4 NB =         7.1697  1-4 EEL =       -67.0779  VDWAALS    =      1803.7547
 EELEC  =    -14038.2892  EHBOND  =         0.0000  RESTRAINT  =         0.0000
 EKCMT  =         0.0000  VIRIAL  =         0.0000  VOLUME     =     39380.7938
                                                    Density    =         0.9877
 DV/DL  =        -7.6472
 ------------------------------------------------------------------------------

      R M S  F L U C T U A T I O N S

 NSTEP =   100000   TIME(PS) =     220.000  TEMP(K) =     4.85  PRESS =     0.0
 Etot   =        66.2638  EKtot   =        37.5157  EPtot      =        53.9828
 BOND   =         3.4652  ANGLE   =         2.8688  DIHED      =         2.7431
 1-4 NB =         0.7682  1-4 EEL =         1.6817  VDWAALS    =        55.5792
 EELEC  =        87.9636  EHBOND  =         0.0000  RESTRAINT  =         0.0000
 EKCMT  =         0.0000  VIRIAL  =         0.0000  VOLUME     =       315.5727
                                                    Density    =         0.0079
 DV/DL  =         5.4155
 ------------------------------------------------------------------------------

      DV/DL, AVERAGES OVER   50000 STEPS

 NSTEP =   100000   TIME(PS) =     220.000  TEMP(K) =     4.85  PRESS =     0.0
 Etot   =         0.0000  EKtot   =         0.0000  EPtot      =        -7.5703
 BOND   =         0.0000  ANGLE   =         0.0000  DIHED      =         0.0000
 1-4 NB =         0.0000  1-4 EEL =         0.0000  VDWAALS    =        -0.7315
 EELEC  =       -10.7415  EHBOND  =         0.0000  RESTRAINT  =         0.0000
 EKCMT  =         0.0000  VIRIAL  =         0.0000  VOLUME     =         0.0000
                                                    Density    =         0.0000
 DV/DL  =        -7.5703
 ------------------------------------------------------------------------------

      A V E R A G E S   O V E R   50000 S T E P S

 NSTEP =   500000   TIME(PS) =    1020.000  TEMP(K) =   298.59  PRESS =     0.0
 Etot   =     -9932.7602  EKtot   =      2307.2876  EPtot      =    -12240.0478
 BOND   =        15.5000  ANGLE   =        27.9388  DIHED      =        13.8617
 1-4 NB =         7.1567  1-4 EEL =       -67.0494  VDWAALS    =      1805.5378
 EELEC  =    -14042.9933  EHBOND  =         0.0000  RESTRAINT  =         0.0000
 EKCMT  =         0.0000  VIRIAL  =         0.0000  VOLUME     =     39306.0023
                                                    Density    =         0.9868
 DV/DL  =        -7.9285
 ------------------------------------------------------------------------------

      R M S  F L U C T U A T I O N S

 NSTEP =   500000   TIME(PS) =    1020.000  TEMP(K) =     4.57  PRESS =     0.0
 Etot   =        56.5280  EKtot   =        35.2807  EPtot      =        48.8159
 BOND   =         3.5385  ANGLE   =         2.8285  DIHED      =         2.8128
 1-4 NB =         0.7731  1-4 EEL =         1.6717  VDWAALS    =        53.5994
 EELEC  =        79.9833  EHBOND  =         0.0000  RESTRAINT  =         0.0000
 EKCMT  =         0.0000  VIRIAL  =         0.0000  VOLUME     =       225.6585
                                                    Density    =         0.0057
 DV/DL  =         5.8142
 ------------------------------------------------------------------------------

      A V E R A G E S   O V E R   50000 S T E P S

 NSTEP =   500000   TIME(PS) =    1020.000  TEMP(K) =   298.59  PRESS =     0.0
 Etot   =     -9928.3388  EKtot   =      2311.7090  EPtot      =    -12240.0478
 BOND   =        15.5000  ANGLE   =        27.9388  DIHED      =        13.8617
 1-4 NB =         7.1567  1-4 EEL =       -67.0494  VDWAALS    =      1805.5378
 EELEC  =    -14042.9933  EHBOND  =         0.0000  RESTRAINT  =         0.0000
 EKCMT  =         0.0000  VIRIAL  =         0.0000  VOLUME     =     39306.0023
                                                    Density    =         0.9895
 DV/DL  =        -7.9285
 ------------------------------------------------------------------------------

      R M S  F L U C T U A T I O N S

 NSTEP =   500000   TIME(PS) =    1020.000  TEMP(K) =     4.57  PRESS =     0.0
 Etot   =        56.6299  EKtot   =        35.3697  EPtot      =        48.8159
 BOND   =         3.5385  ANGLE   =         2.8285  DIHED      =         2.8128
 1-4 NB =         0.7731  1-4 EEL =         1.6717  VDWAALS    =        53.5994
 EELEC  =        79.9833  EHBOND  =         0.0000  RESTRAINT  =         0.0000
 EKCMT  =         0.0000  VIRIAL  =         0.0000  VOLUME     =       225.6585
                                                    Density    =         0.0057
 DV/DL  =         5.8142
 ------------------------------------------------------------------------------

      DV/DL, AVERAGES OVER   50000 STEPS

 NSTEP =   500000   TIME(PS) =    1020.000  TEMP(K) =     4.57  PRESS =     0.0
 Etot   =         0.0000  EKtot   =         0.0000  EPtot      =        -7.8505
 BOND   =         0.0000  ANGLE   =         0.0000  DIHED      =         0.0000
 1-4 NB =         0.0000  1-4 EEL =         0.0000  VDWAALS    =        -0.7329
 EELEC  =       -10.7415  EHBOND  =         0.0000  RESTRAINT  =         0.0000
 EKCMT  =         0.0000  VIRIAL  =         0.0000  VOLUME     =         0.0000
                                                    Density    =         0.0000
 DV/DL  =        -7.8505
 ------------------------------------------------------------------------------

      A V E R A G E S   O V E R  500000 S T E P S

 NSTEP =   500000   TIME(PS) =    1020.000  TEMP(K) =   298.54  PRESS =     0.0
 Etot   =     -9939.0622  EKtot   =      2306.8856  EPtot      =    -12245.9477
 BOND   =        15.2755  ANGLE   =        27.8811  DIHED      =        14.0056
 1-4 NB =         7.1340  1-4 EEL =       -67.1079  VDWAALS    =      1807.7139
 EELEC  =    -14050.8499  EHBOND  =         0.0000  RESTRAINT  =         0.0000
 EKCMT  =         0.0000  VIRIAL  =         0.0000  VOLUME     =     39326.7469
                                                    Density    =         0.9863
 DV/DL  =        -7.5441
 ------------------------------------------------------------------------------

      R M S  F L U C T U A T I O N S

 NSTEP =   500000   TIME(PS) =    1020.000  TEMP(K) =     5.65  PRESS =     0.0
 Etot   =       105.0182  EKtot   =        43.6486  EPtot      =        80.1343
 BOND   =         3.4593  ANGLE   =         2.8196  DIHED      =         2.7941
 1-4 NB =         0.7767  1-4 EEL =         1.6945  VDWAALS    =        60.6645
 EELEC  =       121.4601  EHBOND  =         0.0000  RESTRAINT  =         0.0000
 EKCMT  =         0.0000  VIRIAL  =         0.0000  VOLUME     =       276.6514
                                                    Density    =         0.0069
 DV/DL  =         5.6628
 ------------------------------------------------------------------------------

      A V E R A G E S   O V E R  500000 S T E P S

 NSTEP =   500000   TIME(PS) =    1020.000  TEMP(K) =   298.56  PRESS =     0.0
 Etot   =     -9934.5012  EKtot   =      2311.4465  EPtot      =    -12245.9477
 BOND   =        15.2755  ANGLE   =        27.8811  DIHED      =        14.0056
 1-4 NB =         7.1340  1-4 EEL =       -67.1079  VDWAALS    =      1807.7139
 EELEC  =    -14050.8499  EHBOND  =         0.0000  RESTRAINT  =         0.0000
 EKCMT  =         0.0000  VIRIAL  =         0.0000  VOLUME     =     39326.7469
                                                    Density    =         0.9890
 DV/DL  =        -7.5441
 ------------------------------------------------------------------------------

      R M S  F L U C T U A T I O N S

 NSTEP =   500000   TIME(PS) =    1020.000  TEMP(K) =     5.65  PRESS =     0.0
 Etot   =       105.1122  EKtot   =        43.7503  EPtot      =        80.1343
 BOND   =         3.4593  ANGLE   =         2.8196  DIHED      =         2.7941
 1-4 NB =         0.7767  1-4 EEL =         1.6945  VDWAALS    =        60.6645
 EELEC  =       121.4601  EHBOND  =         0.0000  RESTRAINT  =         0.0000
 EKCMT  =         0.0000  VIRIAL  =         0.0000  VOLUME     =       276.6514
                                                    Density    =         0.0070
 DV/DL  =         5.6628
 ------------------------------------------------------------------------------

      DV/DL, AVERAGES OVER  500000 STEPS

 NSTEP =   500000   TIME(PS) =    1020.000  TEMP(K) =     5.65  PRESS =     0.0
 Etot   =         0.0000  EKtot   =         0.0000  EPtot      =        -7.4688
 BOND   =         0.0000  ANGLE   =         0.0000  DIHED      =         0.0000
 1-4 NB =         0.0000  1-4 EEL =         0.0000  VDWAALS    =        -0.7325
 EELEC  =       -10.7415  EHBOND  =         0.0000  RESTRAINT  =         0.0000
 EKCMT  =         0.0000  VIRIAL  =         0.0000  VOLUME     =         0.0000
                                                    Density    =         0.0000
 DV/DL  =        -7.4688
 ------------------------------------------------------------------------------
